Materials Studio SDF calculation
TCVAMP81A 

 67  0  0  0  0  0              1 V2000
    1.1654    0.5899    0.0000 C   0  0
   -0.0487    2.7491    0.0000 C   0  0
    3.6392    0.5832    0.0000 C   0  0
    2.4270    2.7194    0.0000 C   0  0
    4.8744    2.6960    0.0000 C   0  0
   -0.0604    1.3148    0.0000 C   0  0
    2.4135    1.2987    0.0000 C   0  0
    1.2003    3.4459    0.0000 C   0  0
    4.8852    1.2948    0.0000 C   0  0
    3.6770    3.4239    0.0000 C   0  0
   -3.7734    0.6420    0.0000 C   0  0
   -4.9722    2.7725    0.0000 C   0  0
   -1.2996    0.6131    0.0000 C   0  0
   -2.5287    2.7728    0.0000 C   0  0
   -5.0066    1.3568    0.0000 C   0  0
   -2.5318    1.3494    0.0000 C   0  0
   -3.7766    3.4530    0.0000 C   0  0
   -1.2679    3.4841    0.0000 C   0  0
   -1.2023    4.9008    0.0000 C   0  0
    1.2279    4.8712    0.0000 C   0  0
    3.6644    4.8556    0.0000 C   0  0
    0.0016    5.5732    0.0000 C   0  0
    2.4864    5.5506    0.0000 C   0  0
    2.4866    6.6422    0.0000 H   0  0
   -0.0850   -1.5373    0.0000 C   0  0
    2.3954   -1.5576    0.0000 C   0  0
   -1.3108   -0.8125    0.0000 C   0  0
    1.1556   -0.8336    0.0000 C   0  0
    3.6334   -0.8428    0.0000 C   0  0
   -5.0372   -1.4748    0.0000 C   0  0
   -2.5625   -1.5205    0.0000 C   0  0
   -6.2524   -0.7310    0.0000 C   0  0
   -3.7878   -0.7858    0.0000 C   0  0
   -6.2379    0.6394    0.0000 C   0  0
    1.1383   -3.7009    0.0000 C   0  0
    3.6497   -3.6489    0.0000 C   0  0
   -0.0952   -2.9734    0.0000 C   0  0
    2.4019   -2.9796    0.0000 C   0  0
    4.8463   -2.9596    0.0000 C   0  0
   -3.8491   -3.5944    0.0000 C   0  0
   -1.3393   -3.6816    0.0000 C   0  0
   -5.0318   -2.8897    0.0000 C   0  0
   -2.5892   -2.9401    0.0000 C   0  0
    4.8724   -1.5489    0.0000 C   0  0
   -0.1171   -5.7902    0.0000 C   0  0
    6.1005   -0.8163    0.0000 C   0  0
    1.0946   -5.1062    0.0000 C   0  0
    6.1081    0.5509    0.0000 C   0  0
   -1.3173   -5.0891    0.0000 C   0  0
    4.6212    5.3816    0.0000 H   0  0
    3.6822   -4.7366    0.0000 H   0  0
    5.8254    3.2340    0.0000 H   0  0
    2.0169   -5.6840    0.0000 H   0  0
    5.7923   -3.5047    0.0000 H   0  0
    7.0517    1.0999    0.0000 H   0  0
    7.0386   -1.3746    0.0000 H   0  0
   -0.1248   -6.8808    0.0000 H   0  0
   -2.2489   -5.6512    0.0000 O   0  0
   -3.8952   -4.6816    0.0000 H   0  0
    0.0182    6.6647    0.0000 H   0  0
   -2.1201    5.4854    0.0000 H   0  0
   -3.7995    4.5409    0.0000 H   0  0
   -5.9164    3.3205    0.0000 H   0  0
   -5.9866   -3.4193    0.0000 H   0  0
   -7.1718    1.2045    0.0000 H   0  0
   -7.1985   -1.2758    0.0000 H   0  0
   -3.0489   -6.0511    0.0000 H   0  0
M  END

> <TOTAL ENERGY>
BIOVIA, TYPE=DOUBLE, VERSION=1                                                  
 -1913.73251167

> <BINDING ENERGY>
BIOVIA, TYPE=DOUBLE, VERSION=1                                                  
   -15.69651194

> <HOMO ENERGY>
BIOVIA, TYPE=DOUBLE, VERSION=1                                                  
    -0.16622295

> <LUMO ENERGY>
BIOVIA, TYPE=DOUBLE, VERSION=1                                                  
    -0.10504791

> <LUMO-HOMO ENERGY>
BIOVIA, TYPE=DOUBLE, VERSION=1                                                  
     0.06117504

> <OPERATION STATUS>
BIOVIA, TYPE=STATUS, VERSION=1                                                  
SUCCESS

$$$$
