Materials Studio SDF calculation
TCVAMP81A 

 67  0  0  0  0  0              1 V2000
    1.1876    0.5504   -0.0184 C   0  0
   -0.0265    2.7095   -0.0316 C   0  0
    3.6614    0.5436   -0.0155 C   0  0
    2.4492    2.6798   -0.0285 C   0  0
    4.8966    2.6564   -0.0256 C   0  0
   -0.0382    1.2752   -0.0238 C   0  0
    2.4358    1.2591   -0.0208 C   0  0
    1.2226    3.4063   -0.0339 C   0  0
    4.9074    1.2552   -0.0180 C   0  0
    3.6993    3.3843   -0.0309 C   0  0
   -3.7511    0.6024   -0.0244 C   0  0
   -4.9499    2.7328   -0.0374 C   0  0
   -1.2774    0.5736   -0.0214 C   0  0
   -2.5064    2.7332   -0.0346 C   0  0
   -4.9844    1.3172   -0.0297 C   0  0
   -2.5096    1.3098   -0.0268 C   0  0
   -3.7543    3.4134   -0.0397 C   0  0
   -1.2456    3.4444   -0.0370 C   0  0
   -1.1800    4.8612   -0.0446 C   0  0
    1.2502    4.8316   -0.0416 C   0  0
    3.6867    4.8160   -0.0387 C   0  0
    0.0239    5.5336   -0.0469 C   0  0
    2.5086    5.5110   -0.0439 C   0  0
    2.5088    6.6026   -0.0498 H   0  0
   -0.0628   -1.5769   -0.0083 C   0  0
    2.4177   -1.5971   -0.0053 C   0  0
   -1.2886   -0.8521   -0.0137 C   0  0
    1.1778   -0.8731   -0.0107 C   0  0
    3.6556   -0.8824   -0.0078 C   0  0
   -5.0150   -1.5144   -0.0144 C   0  0
   -2.5402   -1.5600   -0.0113 C   0  0
   -6.2302   -0.7706   -0.0198 C   0  0
   -3.7656   -0.8254   -0.0167 C   0  0
   -6.2156    0.5998   -0.0273 C   0  0
    1.1605   -3.7404    0.0048 C   0  0
    3.6720   -3.6883    0.0075 C   0  0
   -0.0729   -3.0130   -0.0005 C   0  0
    2.4242   -3.0191    0.0024 C   0  0
    4.8685   -2.9991    0.0051 C   0  0
   -3.8269   -3.6340   -0.0015 C   0  0
   -1.3171   -3.7211    0.0019 C   0  0
   -5.0095   -2.9293   -0.0067 C   0  0
   -2.5670   -2.9797   -0.0036 C   0  0
    4.8946   -1.5884   -0.0025 C   0  0
   -0.0948   -5.8297    0.0148 C   0  0
    6.1227   -0.8558   -0.0051 C   0  0
    1.1168   -5.1456    0.0124 C   0  0
    6.1304    0.5114   -0.0125 C   0  0
   -1.2951   -5.1286    0.0096 C   0  0
    4.6434    5.3420   -0.0405 H   0  0
    3.7045   -4.7761    0.0134 H   0  0
    5.8476    3.1944   -0.0274 H   0  0
    2.0392   -5.7235    0.0166 H   0  0
    5.8146   -3.5442    0.0092 H   0  0
    7.0739    1.0603   -0.0144 H   0  0
    7.0609   -1.4141   -0.0010 H   0  0
   -0.1026   -6.9203    0.0207 H   0  0
   -2.2266   -5.6906    0.0115 H   0  0
   -3.8729   -4.7211    0.0044 H   0  0
    0.0405    6.6250   -0.0528 H   0  0
   -2.0978    5.4457   -0.0488 H   0  0
   -3.7772    4.5013   -0.0456 H   0  0
   -5.8942    3.2808   -0.0415 H   0  0
   -5.9643   -3.4589   -0.0049 H   0  0
   -7.1496    1.1649   -0.0314 H   0  0
   -7.1762   -1.3154   -0.0180 H   0  0
   -4.5174   -3.4397    1.1234 O   0  0
M  END

> <TOTAL ENERGY>
BIOVIA, TYPE=DOUBLE, VERSION=1                                                  
 -1913.69002496

> <BINDING ENERGY>
BIOVIA, TYPE=DOUBLE, VERSION=1                                                  
   -15.65402523

> <HOMO ENERGY>
BIOVIA, TYPE=DOUBLE, VERSION=1                                                  
    -0.16866396

> <LUMO ENERGY>
BIOVIA, TYPE=DOUBLE, VERSION=1                                                  
    -0.11251102

> <LUMO-HOMO ENERGY>
BIOVIA, TYPE=DOUBLE, VERSION=1                                                  
     0.05615293

> <OPERATION STATUS>
BIOVIA, TYPE=STATUS, VERSION=1                                                  
SUCCESS

$$$$
