Materials Studio SDF calculation
TCVAMP81A 

 70  0  0  0  0  0              1 V2000
    1.5568    0.5693    0.0115 C   0  0
    0.3443    2.7343    0.0196 C   0  0
    4.0415    0.5522    0.0083 C   0  0
    2.8222    2.6970    0.0363 C   0  0
    5.2657    2.6654    0.0413 C   0  0
    0.3304    1.2953    0.0130 C   0  0
    2.8118    1.2671    0.0177 C   0  0
    1.5954    3.4258    0.0396 C   0  0
    5.2542    1.2908    0.0197 C   0  0
    4.0595    3.4052    0.0494 C   0  0
   -3.3839    0.6374   -0.0532 C   0  0
   -4.5669    2.7500   -0.1960 C   0  0
   -0.9094    0.5988    0.0075 C   0  0
   -2.1351    2.7659   -0.0426 C   0  0
   -4.5912    1.3516   -0.1811 C   0  0
   -2.1426    1.3360   -0.0218 C   0  0
   -3.3679    3.4436   -0.1142 C   0  0
   -0.8673    3.4727    0.0039 C   0  0
   -0.8021    4.8895    0.0334 C   0  0
    1.6255    4.8524    0.0602 C   0  0
    4.0560    4.8304    0.0703 C   0  0
    0.3996    5.5587    0.0633 C   0  0
    2.8792    5.5314    0.0769 C   0  0
    2.8811    6.6224    0.0934 H   0  0
    0.2966   -1.5534    0.0092 C   0  0
    2.7786   -1.5809   -0.0100 C   0  0
   -0.9269   -0.8292    0.0098 C   0  0
    1.5401   -0.8551    0.0037 C   0  0
    4.0248   -0.8940   -0.0115 C   0  0
   -4.6294   -1.4947    0.1768 C   0  0
   -2.1775   -1.5374    0.0411 C   0  0
   -5.9232   -0.7312    0.3228 C   0  0
   -3.4051   -0.8128    0.0423 C   0  0
   -5.8843    0.6128   -0.4068 C   0  0
    1.5120   -3.7114   -0.0149 C   0  0
    3.9756   -3.7468   -0.0477 C   0  0
    0.2779   -2.9922    0.0112 C   0  0
    2.7558   -3.0105   -0.0256 C   0  0
    5.1993   -3.0349   -0.0518 C   0  0
   -3.4483   -3.6095    0.2150 C   0  0
   -0.9515   -3.7014    0.0434 C   0  0
   -4.6310   -2.8882    0.2716 C   0  0
   -2.2015   -2.9645    0.0945 C   0  0
    5.2198   -1.6602   -0.0324 C   0  0
    0.2676   -5.8168   -0.0138 C   0  0
    2.7475   -5.8449   -0.0538 C   0  0
    1.5097   -5.1385   -0.0276 C   0  0
    3.9401   -5.1715   -0.0639 C   0  0
   -0.9182   -5.1199    0.0229 C   0  0
    5.0149    5.3519    0.0808 H   0  0
    6.2078    0.7668    0.0141 H   0  0
    6.2153    3.2033    0.0513 H   0  0
    6.1852   -1.1583   -0.0363 H   0  0
    6.1358   -3.5949   -0.0693 H   0  0
    4.8868   -5.7144   -0.0828 H   0  0
    2.7245   -6.9358   -0.0654 H   0  0
    0.2620   -6.9078   -0.0332 H   0  0
   -1.8506   -5.6809    0.0264 H   0  0
   -3.4988   -4.6946    0.2818 H   0  0
    0.4196    6.6494    0.0877 H   0  0
   -1.7200    5.4734    0.0371 H   0  0
   -3.3952    4.5310   -0.1265 H   0  0
   -5.5090    3.2976   -0.2756 H   0  0
   -5.5819   -3.4103    0.3942 H   0  0
   -6.8327    0.8511   -0.4994 H   0  0
   -6.7479   -1.3132   -0.1130 H   0  0
   -5.3375    1.0626   -1.4590 O   0  0
   -6.1224    1.6963   -1.5601 H   0  0
   -5.1747    3.2942    1.3383 O   0  0
   -4.3867    2.7766    1.4480 H   0  0
M  END

> <TOTAL ENERGY>
BIOVIA, TYPE=DOUBLE, VERSION=1                                                  
 -1989.99831041

> <BINDING ENERGY>
BIOVIA, TYPE=DOUBLE, VERSION=1                                                  
   -15.96222166

> <HOMO ENERGY>
BIOVIA, TYPE=DOUBLE, VERSION=1                                                  
    -0.14917445

> <LUMO ENERGY>
BIOVIA, TYPE=DOUBLE, VERSION=1                                                  
    -0.14310001

> <LUMO-HOMO ENERGY>
BIOVIA, TYPE=DOUBLE, VERSION=1                                                  
     0.00607444

> <OPERATION STATUS>
BIOVIA, TYPE=STATUS, VERSION=1                                                  
SUCCESS

$$$$
