Materials Studio SDF calculation
TCVAMP81A 

 72  0  0  0  0  0              1 V2000
    1.1906    0.3272   -0.0530 C   0  0
   -0.0077    2.4979   -0.0578 C   0  0
    3.6733    0.3022   -0.0699 C   0  0
    2.4609    2.4491   -0.0714 C   0  0
    4.9115    2.4037   -0.0807 C   0  0
   -0.0302    1.0622   -0.0461 C   0  0
    2.4424    1.0207   -0.0648 C   0  0
    1.2424    3.1972   -0.0707 C   0  0
    4.8903    1.0274   -0.0760 C   0  0
    3.6988    3.1530   -0.0803 C   0  0
   -3.7433    0.4102    0.0071 C   0  0
   -4.9314    2.5728   -0.0116 C   0  0
   -1.2740    0.3674   -0.0278 C   0  0
   -2.4881    2.5352   -0.0401 C   0  0
   -4.9935    1.1399    0.0193 C   0  0
   -2.5092    1.1036   -0.0199 C   0  0
   -3.7371    3.2323   -0.0406 C   0  0
   -1.2331    3.2284   -0.0577 C   0  0
   -1.1607    4.6469   -0.0752 C   0  0
    1.2734    4.6328   -0.0834 C   0  0
    3.7152    4.5628   -0.0895 C   0  0
    0.0317    5.3240   -0.0869 C   0  0
    2.5475    5.3078   -0.0917 C   0  0
   -0.0744   -1.7905   -0.0326 C   0  0
    2.4050   -1.8253   -0.0575 C   0  0
   -1.2974   -1.0590   -0.0188 C   0  0
    1.1691   -1.0969   -0.0476 C   0  0
    3.6538   -1.1423   -0.0689 C   0  0
   -5.0110   -1.7131    0.0574 C   0  0
   -2.5482   -1.7609    0.0041 C   0  0
   -6.3329   -0.9919    0.1448 C   0  0
   -3.7752   -1.0232    0.0243 C   0  0
   -6.2053    0.4823    0.0548 C   0  0
    1.1329   -3.9508   -0.0415 C   0  0
    3.5966   -3.9954   -0.0667 C   0  0
   -0.0982   -3.2261   -0.0289 C   0  0
    2.3788   -3.2546   -0.0555 C   0  0
    4.8232   -3.2873   -0.0786 C   0  0
   -3.8331   -3.8335    0.0252 C   0  0
   -1.3322   -3.9301   -0.0118 C   0  0
   -5.0152   -3.1102    0.0527 C   0  0
   -2.5784   -3.1883    0.0057 C   0  0
    4.8468   -1.9132   -0.0791 C   0  0
   -0.1195   -6.0512   -0.0204 C   0  0
    2.3606   -6.0881   -0.0494 C   0  0
    1.1256   -5.3776   -0.0378 C   0  0
    3.5565   -5.4193   -0.0642 C   0  0
   -1.3028   -5.3492   -0.0073 C   0  0
    4.6770    5.0676   -0.0952 H   0  0
    5.8426    0.4972   -0.0771 H   0  0
    5.8151   -1.4168   -0.0883 H   0  0
    5.7578   -3.8505   -0.0870 H   0  0
    4.5009   -5.9662   -0.0731 H   0  0
    2.3339   -7.1790   -0.0463 H   0  0
   -0.1295   -7.1422   -0.0162 H   0  0
   -2.2364   -5.9077    0.0079 H   0  0
   -3.8899   -4.9200    0.0190 H   0  0
    0.0434    6.4092   -0.0988 H   0  0
   -2.0756    5.2348   -0.0776 H   0  0
   -3.7466    4.3195   -0.0635 H   0  0
   -5.8697    3.1296   -0.0114 H   0  0
   -5.9729   -3.6320    0.0879 H   0  0
   -7.1330    1.0569    0.0694 H   0  0
   -7.0093   -1.3671   -0.6439 H   0  0
   -7.0596   -1.3635    1.3636 O   0  0
   -6.5284   -1.0176    2.1044 H   0  0
    2.6638    6.7910   -0.1044 C   0  0
    1.7525    7.6080   -0.1146 O   0  0
    3.9693    7.2172   -0.1037 O   0  0
    3.9010    8.1928   -0.1121 H   0  0
    6.0745    3.1243   -0.0858 O   0  0
    6.8244    2.5053   -0.0867 H   0  0
M  END

> <TOTAL ENERGY>
BIOVIA, TYPE=DOUBLE, VERSION=1                                                  
 -2177.92928196

> <BINDING ENERGY>
BIOVIA, TYPE=DOUBLE, VERSION=1                                                  
   -16.59894410

> <HOMO ENERGY>
BIOVIA, TYPE=DOUBLE, VERSION=1                                                  
    -0.15542314

> <LUMO ENERGY>
BIOVIA, TYPE=DOUBLE, VERSION=1                                                  
    -0.13836782

> <LUMO-HOMO ENERGY>
BIOVIA, TYPE=DOUBLE, VERSION=1                                                  
     0.01705531

> <OPERATION STATUS>
BIOVIA, TYPE=STATUS, VERSION=1                                                  
SUCCESS

$$$$
