Materials Studio SDF calculation
TCVAMP81A 

 69  0  0  0  0  0              1 V2000
    1.1260    0.4600   -0.0113 C   0  0
   -0.1058    2.5893   -0.0113 C   0  0
    3.5860    0.4621   -0.0113 C   0  0
    2.3542    2.5915   -0.0113 C   0  0
    4.8142    2.5936   -0.0113 C   0  0
   -0.1046    1.1690   -0.0113 C   0  0
    2.3554    1.1712   -0.0113 C   0  0
    1.1236    3.3005   -0.0113 C   0  0
    4.8154    1.1733   -0.0113 C   0  0
    3.5836    3.3027   -0.0113 C   0  0
   -3.7740    0.4600   -0.0113 C   0  0
   -5.0058    2.5893   -0.0113 C   0  0
   -1.3140    0.4621   -0.0113 C   0  0
   -2.5458    2.5915   -0.0113 C   0  0
   -5.0046    1.1690   -0.0113 C   0  0
   -2.5446    1.1712   -0.0113 C   0  0
   -3.7764    3.3005   -0.0113 C   0  0
   -1.3164    3.3027   -0.0113 C   0  0
   -1.3058    4.7893   -0.0113 C   0  0
    1.1542    4.7915   -0.0113 C   0  0
    3.6142    4.7936   -0.0113 C   0  0
   -0.0764    5.5005   -0.0113 C   0  0
    2.3836    5.5027   -0.0113 C   0  0
    2.4835    6.8995   -0.0112 C   0  0
   -0.0740   -1.7400   -0.0113 C   0  0
    2.3860   -1.7379   -0.0113 C   0  0
   -1.3046   -1.0310   -0.0113 C   0  0
    1.1554   -1.0288   -0.0113 C   0  0
    3.6154   -1.0267   -0.0113 C   0  0
   -4.9740   -1.7400   -0.0113 C   0  0
   -2.5140   -1.7379   -0.0113 C   0  0
   -6.2046   -1.0310   -0.0113 C   0  0
   -3.7446   -1.0288   -0.0113 C   0  0
   -6.2046    0.3690   -0.0113 C   0  0
    1.0185   -4.1153   -0.0113 C   0  0
    3.4785   -4.1132   -0.0113 C   0  0
   -0.2121   -3.4063   -0.0113 C   0  0
    2.2479   -3.4041   -0.0113 C   0  0
    4.7079   -3.4020   -0.0113 C   0  0
   -3.8815   -4.1153   -0.0113 C   0  0
   -1.4215   -4.1132   -0.0113 C   0  0
   -5.1121   -3.4063   -0.0113 C   0  0
   -2.6521   -3.4041   -0.0113 C   0  0
    4.8410   -1.9805   -0.0114 C   0  0
   -0.2913   -6.3771    0.0755 C   0  0
    2.1687   -6.3750    0.0755 C   0  0
    0.9381   -5.6659    0.0755 C   0  0
    3.3981   -5.6638    0.0755 C   0  0
   -1.5019   -5.6638    0.0755 C   0  0
    4.3334    5.4028   -0.0174 H   0  0
    5.8154    1.1733   -0.0113 H   0  0
    5.6364    3.0932   -0.0181 H   0  0
    5.6538   -1.5743   -0.0155 H   0  0
    5.3890   -3.9921   -0.0057 H   0  0
    4.2758   -6.1666    0.0824 H   0  0
    2.1311   -7.3544    0.0863 H   0  0
   -0.3193   -7.2449    0.0834 H   0  0
   -2.1233   -6.3126    0.0809 H   0  0
   -3.9095   -4.9831   -0.0034 H   0  0
   -0.0473    6.4318   -0.0210 H   0  0
   -1.9859    5.4430   -0.0187 H   0  0
   -3.7473    4.2318   -0.0210 H   0  0
   -5.9049    2.6496   -0.0130 H   0  0
   -5.9270   -3.8488   -0.0081 H   0  0
   -7.0846    1.0290   -0.0189 H   0  0
   -7.0195   -1.4735   -0.0081 H   0  0
    1.4835    7.6995   -0.0112 O   0  0
    3.4835    7.6995   -0.0112 O   0  0
    3.4835    8.8995   -0.0112 H   0  0
M  END

> <TOTAL ENERGY>
BIOVIA, TYPE=DOUBLE, VERSION=1                                                  
 -2027.00910663

> <BINDING ENERGY>
BIOVIA, TYPE=DOUBLE, VERSION=1                                                  
   -16.17987847

> <HOMO ENERGY>
BIOVIA, TYPE=DOUBLE, VERSION=1                                                  
    -0.18272863

> <LUMO ENERGY>
BIOVIA, TYPE=DOUBLE, VERSION=1                                                  
    -0.10892966

> <LUMO-HOMO ENERGY>
BIOVIA, TYPE=DOUBLE, VERSION=1                                                  
     0.07379897

> <OPERATION STATUS>
BIOVIA, TYPE=STATUS, VERSION=1                                                  
SUCCESS

$$$$
