Materials Studio SDF calculation
TCVAMP81A 

 67  0  0  0  0  0              1 V2000
    1.1635    0.4118    0.0000 C   0  0
   -0.0506    2.5709    0.0000 C   0  0
    3.6372    0.4050    0.0000 C   0  0
    2.4250    2.5413    0.0000 C   0  0
    4.8725    2.5178    0.0000 C   0  0
   -0.0624    1.1367    0.0000 C   0  0
    2.4116    1.1205    0.0000 C   0  0
    1.1984    3.2677    0.0000 C   0  0
    4.8833    1.1166    0.0000 C   0  0
    3.6751    3.2457    0.0000 C   0  0
   -3.7753    0.4638    0.0000 C   0  0
   -4.9741    2.5943    0.0000 C   0  0
   -1.3015    0.4350    0.0000 C   0  0
   -2.5306    2.5947    0.0000 C   0  0
   -5.0085    1.1786    0.0000 C   0  0
   -2.5337    1.1712    0.0000 C   0  0
   -3.7785    3.2749    0.0000 C   0  0
   -1.2698    3.3059    0.0000 C   0  0
   -1.2042    4.7226    0.0000 C   0  0
    1.2260    4.6931    0.0000 C   0  0
    3.6625    4.6774    0.0000 C   0  0
   -0.0003    5.3951    0.0000 C   0  0
    2.4844    5.3725    0.0000 C   0  0
    2.4847    6.4641    0.0000 H   0  0
   -0.0869   -1.7155    0.0000 C   0  0
    2.3935   -1.7357    0.0000 C   0  0
   -1.3127   -0.9907    0.0000 C   0  0
    1.1536   -1.0117    0.0000 C   0  0
    3.6315   -1.0210    0.0000 C   0  0
   -5.0391   -1.6529    0.0000 C   0  0
   -2.5644   -1.6986    0.0000 C   0  0
   -6.2543   -0.9091    0.0000 C   0  0
   -3.7897   -0.9639    0.0000 C   0  0
   -6.2398    0.4613    0.0000 C   0  0
    1.1364   -3.8790    0.0000 C   0  0
    3.6478   -3.8270    0.0000 C   0  0
   -0.0971   -3.1516    0.0000 C   0  0
    2.4000   -3.1577    0.0000 C   0  0
    4.8443   -3.1378    0.0000 C   0  0
   -3.8511   -3.7726    0.0000 C   0  0
   -1.3413   -3.8598    0.0000 C   0  0
   -5.0337   -3.0679    0.0000 C   0  0
   -2.5911   -3.1183    0.0000 C   0  0
    4.8705   -1.7271    0.0000 C   0  0
   -0.1190   -5.9684    0.0000 C   0  0
    6.0985   -0.9945    0.0000 C   0  0
    1.0927   -5.2843    0.0000 C   0  0
    6.1062    0.3727    0.0000 C   0  0
   -1.3193   -5.2673    0.0000 C   0  0
    4.6193    5.2034    0.0000 H   0  0
    3.6803   -4.9148    0.0000 H   0  0
    5.8235    3.0558    0.0000 H   0  0
    2.0150   -5.8622    0.0000 H   0  0
    5.7904   -3.6829    0.0000 H   0  0
    7.0497    0.9217    0.0000 H   0  0
    7.0367   -1.5528    0.0000 H   0  0
   -0.1267   -7.0590    0.0000 H   0  0
   -2.2508   -5.8293    0.0000 H   0  0
   -3.8971   -4.8598    0.0000 H   0  0
    0.0163    6.4865    0.0000 H   0  0
   -2.1220    5.3072    0.0000 O   0  0
   -3.8014    4.3628    0.0000 H   0  0
   -5.9184    3.1423    0.0000 H   0  0
   -5.9885   -3.5975    0.0000 H   0  0
   -7.1738    1.0264    0.0000 H   0  0
   -7.2004   -1.4540    0.0000 H   0  0
   -2.9220    5.7072    0.0000 H   0  0
M  END

> <TOTAL ENERGY>
BIOVIA, TYPE=DOUBLE, VERSION=1                                                  
 -1913.73160299

> <BINDING ENERGY>
BIOVIA, TYPE=DOUBLE, VERSION=1                                                  
   -15.69560326

> <HOMO ENERGY>
BIOVIA, TYPE=DOUBLE, VERSION=1                                                  
    -0.16856330

> <LUMO ENERGY>
BIOVIA, TYPE=DOUBLE, VERSION=1                                                  
    -0.10536660

> <LUMO-HOMO ENERGY>
BIOVIA, TYPE=DOUBLE, VERSION=1                                                  
     0.06319670

> <OPERATION STATUS>
BIOVIA, TYPE=STATUS, VERSION=1                                                  
SUCCESS

$$$$
