Materials Studio SDF calculation
TCVAMP81A 

 68  0  0  0  0  0              1 V2000
    1.4368    0.6725    0.0496 C   0  0
    0.2245    2.8337    0.0327 C   0  0
    3.9221    0.6552    0.0626 C   0  0
    2.7018    2.7997    0.0456 C   0  0
    5.1459    2.7694    0.0585 C   0  0
    0.2109    1.3981    0.0391 C   0  0
    2.6918    1.3702    0.0531 C   0  0
    1.4748    3.5272    0.0346 C   0  0
    5.1351    1.3951    0.0664 C   0  0
    3.9392    3.5091    0.0482 C   0  0
   -3.5111    0.7277    0.0021 C   0  0
   -4.6946    2.8487    0.0053 C   0  0
   -1.0329    0.7000    0.0303 C   0  0
   -2.2559    2.8611    0.0214 C   0  0
   -4.7284    1.4507   -0.0166 C   0  0
   -2.2644    1.4339    0.0170 C   0  0
   -3.4934    3.5397    0.0274 C   0  0
   -0.9903    3.5695    0.0223 C   0  0
   -0.9255    4.9870    0.0050 C   0  0
    1.5034    4.9535    0.0235 C   0  0
    3.9343    4.9341    0.0393 C   0  0
    0.2757    5.6578    0.0072 C   0  0
    2.7561    5.6337    0.0267 C   0  0
    2.7565    6.7248    0.0183 H   0  0
    0.1755   -1.4505    0.0501 C   0  0
    2.6569   -1.4770    0.0639 C   0  0
   -1.0486   -0.7260    0.0372 C   0  0
    1.4204   -0.7517    0.0550 C   0  0
    3.9053   -0.7896    0.0674 C   0  0
   -4.7869   -1.4034   -0.0071 C   0  0
   -2.3022   -1.4328    0.0322 C   0  0
   -5.9784   -0.7127   -0.0326 C   0  0
   -3.5167   -0.7067    0.0101 C   0  0
   -6.0682    0.7669   -0.0974 C   0  0
    1.3873   -3.6050    0.0750 C   0  0
    3.8522   -3.6437    0.0838 C   0  0
    0.1563   -2.8846    0.0626 C   0  0
    2.6328   -2.9059    0.0741 C   0  0
    5.0773   -2.9321    0.0842 C   0  0
   -3.5869   -3.5296    0.0290 C   0  0
   -1.0841   -3.5933    0.0562 C   0  0
   -4.7628   -2.8384    0.0070 C   0  0
   -2.3188   -2.8664    0.0395 C   0  0
    5.0994   -1.5577    0.0773 C   0  0
    0.1388   -5.7122    0.0851 C   0  0
    2.6188   -5.7394    0.0950 C   0  0
    1.3852   -5.0333    0.0864 C   0  0
    3.8153   -5.0664    0.0988 C   0  0
   -1.0452   -5.0195    0.0719 C   0  0
    4.8929    5.4559    0.0414 H   0  0
    6.0878    0.8695    0.0737 H   0  0
    6.0953    3.3078    0.0602 H   0  0
    6.0656   -1.0575    0.0800 H   0  0
    6.0132   -3.4934    0.0937 H   0  0
    4.7607   -5.6115    0.1042 H   0  0
    2.5955   -6.8303    0.0984 H   0  0
    0.1347   -6.8035    0.0932 H   0  0
   -1.9752   -5.5834    0.0716 H   0  0
   -3.6238   -4.6166    0.0360 H   0  0
    0.2940    6.7486   -0.0066 H   0  0
   -1.8440    5.5694   -0.0128 H   0  0
   -3.5215    4.6269    0.0492 H   0  0
   -5.6383    3.3963   -0.0102 H   0  0
   -5.7164   -3.3685   -0.0043 H   0  0
   -6.7173    1.1459    0.7132 H   0  0
   -6.9235   -1.2581   -0.0576 H   0  0
   -6.8047    1.1714   -1.2985 O   0  0
   -6.2100    0.9896   -2.0489 H   0  0
M  END

> <TOTAL ENERGY>
BIOVIA, TYPE=DOUBLE, VERSION=1                                                  
 -1914.27510402

> <BINDING ENERGY>
BIOVIA, TYPE=DOUBLE, VERSION=1                                                  
   -15.73941484

> <HOMO ENERGY>
BIOVIA, TYPE=DOUBLE, VERSION=1                                                  
    -0.14522787

> <LUMO ENERGY>
BIOVIA, TYPE=DOUBLE, VERSION=1                                                  
    -0.09826186

> <LUMO-HOMO ENERGY>
BIOVIA, TYPE=DOUBLE, VERSION=1                                                  
     0.04696601

> <OPERATION STATUS>
BIOVIA, TYPE=STATUS, VERSION=1                                                  
SUCCESS

$$$$
