Materials Studio SDF calculation
TCVAMP81A 

 67  0  0  0  0  0              1 V2000
    1.3080    0.7493   -0.0174 C   0  0
    0.0859    2.9085   -0.0306 C   0  0
    3.7919    0.7379   -0.0131 C   0  0
    2.5642    2.8800   -0.0261 C   0  0
    5.0098    2.8559   -0.0218 C   0  0
    0.0785    1.4740   -0.0233 C   0  0
    2.5595    1.4506   -0.0189 C   0  0
    1.3343    3.6050   -0.0320 C   0  0
    5.0037    1.4818   -0.0148 C   0  0
    3.7995    3.5928   -0.0276 C   0  0
   -3.6334    0.7962   -0.0262 C   0  0
   -4.8353    2.9262   -0.0392 C   0  0
   -1.1601    0.7737   -0.0218 C   0  0
   -2.3921    2.9305   -0.0350 C   0  0
   -4.8683    1.5096   -0.0320 C   0  0
   -2.3931    1.5069   -0.0277 C   0  0
   -3.6422    3.6080   -0.0406 C   0  0
   -1.1344    3.6416   -0.0364 C   0  0
   -1.0705    5.0620   -0.0436 C   0  0
    1.3597    5.0308   -0.0392 C   0  0
    3.7908    5.0165   -0.0349 C   0  0
    0.1288    5.7329   -0.0449 C   0  0
    2.6095    5.7128   -0.0405 C   0  0
    2.6079    6.8041   -0.0461 H   0  0
    0.0528   -1.3759   -0.0088 C   0  0
    2.5338   -1.3971   -0.0043 C   0  0
   -1.1729   -0.6534   -0.0146 C   0  0
    1.2952   -0.6735   -0.0102 C   0  0
    3.7789   -0.7068   -0.0057 C   0  0
   -4.8938   -1.3224   -0.0176 C   0  0
   -2.4190   -1.3642   -0.0131 C   0  0
   -6.1093   -0.5809   -0.0235 C   0  0
   -3.6463   -0.6313   -0.0190 C   0  0
   -6.0970    0.7902   -0.0305 C   0  0
    1.2700   -3.5291    0.0044 C   0  0
    3.7350   -3.5613    0.0088 C   0  0
    0.0344   -2.8103   -0.0015 C   0  0
    2.5128   -2.8265    0.0029 C   0  0
    4.9584   -2.8464    0.0073 C   0  0
   -3.7058   -3.4425   -0.0047 C   0  0
   -1.1990   -3.5213    0.0000 C   0  0
   -4.8864   -2.7393   -0.0103 C   0  0
   -2.4437   -2.7876   -0.0059 C   0  0
    4.9770   -1.4724    0.0003 C   0  0
    0.0263   -5.6350    0.0130 C   0  0
    2.5070   -5.6596    0.0174 C   0  0
    1.2696   -4.9552    0.0116 C   0  0
    3.7006   -4.9847    0.0160 C   0  0
   -1.1607   -4.9426    0.0074 C   0  0
    4.7463    5.5437   -0.0360 H   0  0
    5.9581    0.9596   -0.0105 H   0  0
    5.9562    3.3995   -0.0229 H   0  0
    5.9407   -0.9675   -0.0006 H   0  0
    5.8948   -3.4070    0.0117 H   0  0
    4.6465   -5.5290    0.0204 H   0  0
    2.4857   -6.7506    0.0229 H   0  0
    0.0239   -6.7264    0.0185 H   0  0
   -2.0901   -5.5081    0.0086 H   0  0
   -3.7504   -4.5295    0.0008 H   0  0
    0.1461    6.8241   -0.0505 H   0  0
   -1.9896    5.6441   -0.0481 H   0  0
   -3.6672    4.6956   -0.0462 H   0  0
   -5.7793    3.4740   -0.0436 H   0  0
   -5.8401   -3.2700   -0.0093 H   0  0
   -7.0313    1.3541   -0.0350 H   0  0
   -7.0536   -1.1279   -0.0223 H   0  0
   -4.4173   -3.2375    1.0564 O   0  0
M  END

> <TOTAL ENERGY>
BIOVIA, TYPE=DOUBLE, VERSION=1                                                  
 -1913.69747918

> <BINDING ENERGY>
BIOVIA, TYPE=DOUBLE, VERSION=1                                                  
   -15.66147946

> <HOMO ENERGY>
BIOVIA, TYPE=DOUBLE, VERSION=1                                                  
    -0.17423154

> <LUMO ENERGY>
BIOVIA, TYPE=DOUBLE, VERSION=1                                                  
    -0.10678811

> <LUMO-HOMO ENERGY>
BIOVIA, TYPE=DOUBLE, VERSION=1                                                  
     0.06744342

> <OPERATION STATUS>
BIOVIA, TYPE=STATUS, VERSION=1                                                  
SUCCESS

$$$$
