Materials Studio SDF calculation
TCVAMP81A 

 67  0  0  0  0  0              1 V2000
    1.1659    0.7315   -0.0174 C   0  0
   -0.0562    2.8907   -0.0306 C   0  0
    3.6498    0.7201   -0.0131 C   0  0
    2.4221    2.8622   -0.0261 C   0  0
    4.8677    2.8381   -0.0218 C   0  0
   -0.0636    1.4561   -0.0233 C   0  0
    2.4174    1.4327   -0.0189 C   0  0
    1.1922    3.5871   -0.0320 C   0  0
    4.8616    1.4640   -0.0148 C   0  0
    3.6573    3.5749   -0.0276 C   0  0
   -3.7755    0.7784   -0.0262 C   0  0
   -4.9774    2.9084   -0.0392 C   0  0
   -1.3022    0.7559   -0.0218 C   0  0
   -2.5342    2.9126   -0.0350 C   0  0
   -5.0104    1.4917   -0.0320 C   0  0
   -2.5352    1.4890   -0.0277 C   0  0
   -3.7843    3.5901   -0.0406 C   0  0
   -1.2765    3.6238   -0.0364 C   0  0
   -1.2126    5.0442   -0.0436 C   0  0
    1.2175    5.0130   -0.0392 C   0  0
    3.6487    4.9987   -0.0349 C   0  0
   -0.0133    5.7150   -0.0449 C   0  0
    2.4674    5.6949   -0.0405 C   0  0
    2.4658    6.7862   -0.0461 H   0  0
   -0.0893   -1.3937   -0.0088 C   0  0
    2.3917   -1.4150   -0.0043 C   0  0
   -1.3150   -0.6712   -0.0146 C   0  0
    1.1531   -0.6913   -0.0102 C   0  0
    3.6368   -0.7247   -0.0057 C   0  0
   -5.0359   -1.3402   -0.0176 C   0  0
   -2.5611   -1.3821   -0.0131 C   0  0
   -6.2514   -0.5988   -0.0235 C   0  0
   -3.7884   -0.6492   -0.0190 C   0  0
   -6.2391    0.7723   -0.0305 C   0  0
    1.1279   -3.5470    0.0044 C   0  0
    3.5928   -3.5792    0.0088 C   0  0
   -0.1077   -2.8281   -0.0015 C   0  0
    2.3707   -2.8443    0.0029 C   0  0
    4.8163   -2.8642    0.0073 C   0  0
   -3.8479   -3.4603   -0.0047 C   0  0
   -1.3411   -3.5391    0.0000 C   0  0
   -5.0285   -2.7572   -0.0103 C   0  0
   -2.5858   -2.8055   -0.0059 C   0  0
    4.8349   -1.4903    0.0003 C   0  0
   -0.1158   -5.6528    0.0130 C   0  0
    2.3649   -5.6774    0.0174 C   0  0
    1.1275   -4.9731    0.0116 C   0  0
    3.5585   -5.0025    0.0160 C   0  0
   -1.3028   -4.9605    0.0074 C   0  0
    4.6042    5.5258   -0.0360 H   0  0
    5.8160    0.9417   -0.0105 H   0  0
    5.8141    3.3817   -0.0229 H   0  0
    5.7986   -0.9853   -0.0006 H   0  0
    5.7527   -3.4248    0.0117 H   0  0
    4.5044   -5.5468    0.0204 H   0  0
    2.3436   -6.7685    0.0229 H   0  0
   -0.1182   -6.7442    0.0185 H   0  0
   -2.2322   -5.5259    0.0086 H   0  0
   -3.8925   -4.5473    0.0008 H   0  0
    0.0040    6.8063   -0.0505 H   0  0
   -2.1317    5.6263   -0.0481 H   0  0
   -3.8093    4.6778   -0.0462 H   0  0
   -5.9214    3.4561   -0.0436 H   0  0
   -5.9822   -3.2879   -0.0093 H   0  0
   -7.1734    1.3363   -0.0350 H   0  0
   -7.1957   -1.1458   -0.0223 H   0  0
    4.9621   -2.0591    1.0564 O   0  0
M  END

> <TOTAL ENERGY>
BIOVIA, TYPE=DOUBLE, VERSION=1                                                  
 -1913.69752405

> <BINDING ENERGY>
BIOVIA, TYPE=DOUBLE, VERSION=1                                                  
   -15.66152432

> <HOMO ENERGY>
BIOVIA, TYPE=DOUBLE, VERSION=1                                                  
    -0.17432755

> <LUMO ENERGY>
BIOVIA, TYPE=DOUBLE, VERSION=1                                                  
    -0.10671363

> <LUMO-HOMO ENERGY>
BIOVIA, TYPE=DOUBLE, VERSION=1                                                  
     0.06761392

> <OPERATION STATUS>
BIOVIA, TYPE=STATUS, VERSION=1                                                  
SUCCESS

$$$$
