Materials Studio SDF calculation
TCVAMP81A 

 67  0  0  0  0  0              1 V2000
    1.1196    0.3852    0.0000 C   0  0
   -0.0945    2.5443    0.0000 C   0  0
    3.5934    0.3784    0.0000 C   0  0
    2.3812    2.5147    0.0000 C   0  0
    4.8286    2.4912    0.0000 C   0  0
   -0.1062    1.1101    0.0000 C   0  0
    2.3677    1.0940    0.0000 C   0  0
    1.1546    3.2412    0.0000 C   0  0
    4.8394    1.0901    0.0000 C   0  0
    3.6312    3.2192    0.0000 C   0  0
   -3.8191    0.4372    0.0000 C   0  0
   -5.0179    2.5678    0.0000 C   0  0
   -1.3454    0.4084    0.0000 C   0  0
   -2.5744    2.5681    0.0000 C   0  0
   -5.0524    1.1521    0.0000 C   0  0
   -2.5776    1.1447    0.0000 C   0  0
   -3.8223    3.2483    0.0000 C   0  0
   -1.3136    3.2793    0.0000 C   0  0
   -1.2480    4.6961    0.0000 C   0  0
    1.1822    4.6665    0.0000 C   0  0
    3.6187    4.6509    0.0000 C   0  0
   -0.0441    5.3685    0.0000 C   0  0
    2.4406    5.3459    0.0000 C   0  0
    2.4408    6.4375    0.0000 H   0  0
   -0.1308   -1.7420    0.0000 C   0  0
    2.3496   -1.7623    0.0000 C   0  0
   -1.3566   -1.0172    0.0000 C   0  0
    1.1098   -1.0383    0.0000 C   0  0
    3.5876   -1.0476    0.0000 C   0  0
   -5.0830   -1.6795    0.0000 C   0  0
   -2.6083   -1.7252    0.0000 C   0  0
   -6.2982   -0.9357    0.0000 C   0  0
   -3.8336   -0.9905    0.0000 C   0  0
   -6.2837    0.4347    0.0000 C   0  0
    1.0925   -3.9056    0.0000 C   0  0
    3.6039   -3.8536    0.0000 C   0  0
   -0.1410   -3.1782    0.0000 C   0  0
    2.3561   -3.1843    0.0000 C   0  0
    4.8005   -3.1643    0.0000 C   0  0
   -3.8949   -3.7991    0.0000 C   0  0
   -1.3851   -3.8863    0.0000 C   0  0
   -5.0776   -3.0944    0.0000 C   0  0
   -2.6350   -3.1449    0.0000 C   0  0
    4.8266   -1.7536    0.0000 C   0  0
   -0.1628   -5.9950    0.0000 C   0  0
    6.0547   -1.0210    0.0000 C   0  0
    1.0488   -5.3109    0.0000 C   0  0
    6.0623    0.3462    0.0000 C   0  0
   -1.3631   -5.2938    0.0000 C   0  0
    4.5754    5.1769    0.0000 H   0  0
    3.6365   -4.9413    0.0000 H   0  0
    5.7796    3.0293    0.0000 H   0  0
    1.9711   -5.8887    0.0000 H   0  0
    5.7465   -3.7094    0.0000 H   0  0
    7.0059    0.8952    0.0000 H   0  0
    6.9928   -1.5793    0.0000 H   0  0
   -0.1706   -7.0855    0.0000 H   0  0
   -2.2947   -5.8559    0.0000 H   0  0
   -3.9410   -4.8863    0.0000 H   0  0
   -0.0276    6.4600    0.0000 O   0  0
   -2.1659    5.2807    0.0000 H   0  0
   -3.8453    4.3362    0.0000 H   0  0
   -5.9622    3.1158    0.0000 H   0  0
   -6.0324   -3.6240    0.0000 H   0  0
   -7.2176    0.9998    0.0000 H   0  0
   -7.2443   -1.4805    0.0000 H   0  0
   -0.0276    7.4600    0.0000 H   0  0
M  END

> <TOTAL ENERGY>
BIOVIA, TYPE=DOUBLE, VERSION=1                                                  
 -1913.74693092

> <BINDING ENERGY>
BIOVIA, TYPE=DOUBLE, VERSION=1                                                  
   -15.71093119

> <HOMO ENERGY>
BIOVIA, TYPE=DOUBLE, VERSION=1                                                  
    -0.16795511

> <LUMO ENERGY>
BIOVIA, TYPE=DOUBLE, VERSION=1                                                  
    -0.10495075

> <LUMO-HOMO ENERGY>
BIOVIA, TYPE=DOUBLE, VERSION=1                                                  
     0.06300436

> <OPERATION STATUS>
BIOVIA, TYPE=STATUS, VERSION=1                                                  
SUCCESS

$$$$
