Materials Studio SDF calculation
TCVAMP81A 

 75  0  0  0  0  0              1 V2000
    1.2725    0.4023   -0.0041 C   0  0
    0.0714    2.5744   -0.0052 C   0  0
    3.7545    0.3850   -0.0134 C   0  0
    2.5413    2.5285    0.0103 C   0  0
    4.9912    2.4872    0.0113 C   0  0
    0.0516    1.1338   -0.0050 C   0  0
    2.5242    1.0994   -0.0038 C   0  0
    1.3229    3.2756    0.0130 C   0  0
    4.9711    1.1108   -0.0076 C   0  0
    3.7780    3.2335    0.0207 C   0  0
   -3.6660    0.4752   -0.0699 C   0  0
   -4.8436    2.5885   -0.2403 C   0  0
   -1.1899    0.4369   -0.0053 C   0  0
   -2.4133    2.5998   -0.0745 C   0  0
   -4.8718    1.1905   -0.2086 C   0  0
   -2.4237    1.1721   -0.0422 C   0  0
   -3.6435    3.2803   -0.1607 C   0  0
   -1.1443    3.3038   -0.0250 C   0  0
   -1.0803    4.7153    0.0056 C   0  0
    1.3511    4.7100    0.0320 C   0  0
    3.7930    4.6452    0.0414 C   0  0
    0.1128    5.3984    0.0371 C   0  0
    2.6276    5.3882    0.0480 C   0  0
    0.0103   -1.7180    0.0106 C   0  0
    2.4916   -1.7483   -0.0172 C   0  0
   -1.2111   -0.9913    0.0088 C   0  0
    1.2536   -1.0222   -0.0033 C   0  0
    3.7381   -1.0614   -0.0276 C   0  0
   -4.9156   -1.6512    0.1845 C   0  0
   -2.4629   -1.6980    0.0481 C   0  0
   -6.2075   -0.8833    0.3201 C   0  0
   -3.6897   -0.9730    0.0430 C   0  0
   -6.1655    0.4513   -0.4263 C   0  0
    1.2222   -3.8753   -0.0031 C   0  0
    3.6928   -3.9058   -0.0487 C   0  0
   -0.0097   -3.1562    0.0233 C   0  0
    2.4686   -3.1791   -0.0244 C   0  0
    4.9184   -3.2010   -0.0628 C   0  0
   -3.7363   -3.7664    0.2442 C   0  0
   -1.2404   -3.8628    0.0652 C   0  0
   -4.9185   -3.0435    0.2947 C   0  0
   -2.4889   -3.1245    0.1141 C   0  0
    4.9326   -1.8260   -0.0504 C   0  0
   -0.0204   -5.9794    0.0199 C   0  0
    2.4555   -6.0095   -0.0332 C   0  0
    1.2225   -5.3017   -0.0050 C   0  0
    3.6529   -5.3379   -0.0565 C   0  0
   -1.2056   -5.2808    0.0564 C   0  0
    4.7549    5.1499    0.0519 H   0  0
    5.9238    0.5817   -0.0131 H   0  0
    5.8990   -1.3263   -0.0617 H   0  0
    5.8511   -3.7616   -0.0820 H   0  0
    2.4345   -7.1022   -0.0368 H   0  0
   -0.0290   -7.0704    0.0088 H   0  0
   -2.1375   -5.8426    0.0682 H   0  0
   -3.7878   -4.8510    0.3208 H   0  0
    0.1210    6.4835    0.0618 H   0  0
   -1.9983    5.2991    0.0105 H   0  0
   -3.6681    4.3673   -0.1861 H   0  0
   -5.7838    3.1377   -0.3313 H   0  0
   -5.8697   -3.5634    0.4231 H   0  0
   -7.0095    1.0647   -0.0657 H   0  0
   -7.0331   -1.4692   -0.1089 H   0  0
   -6.3452    0.1338   -1.8252 O   0  0
   -5.9108    0.8353   -2.3387 H   0  0
   -6.5565   -0.6975    1.7055 O   0  0
   -5.7574   -0.3884    2.1674 H   0  0
    2.7409    6.8712    0.0714 C   0  0
    1.8275    7.6860    0.0809 O   0  0
    4.0456    7.3013    0.0853 O   0  0
    3.9732    8.2765    0.0997 H   0  0
    6.1538    3.2092    0.0220 O   0  0
    6.9042    2.5910    0.0141 H   0  0
    4.8686   -5.9725   -0.0845 O   0  0
    4.7150   -6.9325   -0.0858 H   0  0
M  END

> <TOTAL ENERGY>
BIOVIA, TYPE=DOUBLE, VERSION=1                                                  
 -2328.92700890

> <BINDING ENERGY>
BIOVIA, TYPE=DOUBLE, VERSION=1                                                  
   -17.09556136

> <HOMO ENERGY>
BIOVIA, TYPE=DOUBLE, VERSION=1                                                  
    -0.17934652

> <LUMO ENERGY>
BIOVIA, TYPE=DOUBLE, VERSION=1                                                  
    -0.11372457

> <LUMO-HOMO ENERGY>
BIOVIA, TYPE=DOUBLE, VERSION=1                                                  
     0.06562195

> <OPERATION STATUS>
BIOVIA, TYPE=STATUS, VERSION=1                                                  
SUCCESS

$$$$
