Materials Studio SDF calculation
TCVAMP81A 

 67  0  0  0  0  0              1 V2000
    1.2116    0.5015   -0.0075 C   0  0
    0.0020    2.6615   -0.0286 C   0  0
    3.6873    0.4947   -0.0129 C   0  0
    2.4769    2.6300   -0.0364 C   0  0
    4.9237    2.6065   -0.0423 C   0  0
   -0.0142    1.2247   -0.0064 C   0  0
    2.4613    1.2097   -0.0191 C   0  0
    1.2512    3.3570   -0.0431 C   0  0
    4.9333    1.2056   -0.0226 C   0  0
    3.7272    3.3340   -0.0492 C   0  0
   -3.7334    0.5619    0.0735 C   0  0
   -4.9133    2.6858   -0.0370 C   0  0
   -1.2542    0.5231    0.0182 C   0  0
   -2.4785    2.6880   -0.0290 C   0  0
   -4.9429    1.2932    0.0687 C   0  0
   -2.4899    1.2589    0.0238 C   0  0
   -3.7093    3.3704   -0.0788 C   0  0
   -1.2120    3.3982   -0.0409 C   0  0
   -1.1473    4.8125   -0.0620 C   0  0
    1.2807    4.7827   -0.0658 C   0  0
    3.7165    4.7659   -0.0693 C   0  0
    0.0572    5.4858   -0.0738 C   0  0
    2.5399    5.4617   -0.0777 C   0  0
    2.5401    6.5532   -0.0941 H   0  0
   -0.0371   -1.6261    0.0067 C   0  0
    2.4446   -1.6460    0.0063 C   0  0
   -1.2646   -0.9024    0.0225 C   0  0
    1.2024   -0.9232    0.0017 C   0  0
    3.6822   -0.9312    0.0034 C   0  0
   -4.9726   -1.5942    0.0548 C   0  0
   -2.5185   -1.6109    0.0246 C   0  0
   -6.2555   -0.8778    0.1750 C   0  0
   -3.7470   -0.8879    0.0699 C   0  0
   -6.2398    0.6018    0.1844 C   0  0
    1.1925   -3.7894    0.0026 C   0  0
    3.7022   -3.7363    0.0367 C   0  0
   -0.0415   -3.0651   -0.0031 C   0  0
    2.4541   -3.0672    0.0164 C   0  0
    4.8975   -3.0463    0.0364 C   0  0
   -3.7783   -3.6929   -0.1010 C   0  0
   -1.2802   -3.7764   -0.0226 C   0  0
   -4.9704   -2.9845   -0.0654 C   0  0
   -2.5366   -3.0367   -0.0305 C   0  0
    4.9216   -1.6358    0.0156 C   0  0
   -0.0548   -5.8823   -0.0216 C   0  0
    6.1496   -0.9036    0.0085 C   0  0
    1.1532   -5.1962   -0.0099 C   0  0
    6.1566    0.4630   -0.0118 C   0  0
   -1.2568   -5.1812   -0.0264 C   0  0
    4.6741    5.2903   -0.0786 H   0  0
    3.7352   -4.8237    0.0541 H   0  0
    5.8750    3.1438   -0.0516 H   0  0
    2.0778   -5.7695   -0.0107 H   0  0
    5.8441   -3.5901    0.0514 H   0  0
    7.0995    1.0131   -0.0190 H   0  0
    7.0876   -1.4620    0.0179 H   0  0
   -0.0616   -6.9728   -0.0259 H   0  0
   -2.1872   -5.7451   -0.0267 H   0  0
   -3.8238   -4.7774   -0.1780 H   0  0
    0.0738    6.5771   -0.0880 H   0  0
   -2.0646    5.3977   -0.0633 H   0  0
   -3.7328    4.4564   -0.1435 H   0  0
   -5.8557    3.2365   -0.0629 H   0  0
   -5.9229   -3.5170   -0.1051 H   0  0
   -7.1211    1.1498   -0.1648 H   0  0
   -7.1485   -1.4022   -0.1806 H   0  0
   -6.4659   -0.1428    1.4141 O   0  0
M  END

> <TOTAL ENERGY>
BIOVIA, TYPE=DOUBLE, VERSION=1                                                  
 -1913.69544576

> <BINDING ENERGY>
BIOVIA, TYPE=DOUBLE, VERSION=1                                                  
   -15.65944603

> <HOMO ENERGY>
BIOVIA, TYPE=DOUBLE, VERSION=1                                                  
    -0.17406644

> <LUMO ENERGY>
BIOVIA, TYPE=DOUBLE, VERSION=1                                                  
    -0.10445031

> <LUMO-HOMO ENERGY>
BIOVIA, TYPE=DOUBLE, VERSION=1                                                  
     0.06961612

> <OPERATION STATUS>
BIOVIA, TYPE=STATUS, VERSION=1                                                  
SUCCESS

$$$$
