Materials Studio SDF calculation
TCVAMP81A 

 67  0  0  0  0  0              1 V2000
    1.2515    0.6813   -0.0161 C   0  0
    0.0351    2.8413   -0.0295 C   0  0
    3.7341    0.6682   -0.0129 C   0  0
    2.5149    2.8098   -0.0261 C   0  0
    4.9570    2.7835   -0.0228 C   0  0
    0.0235    1.4068   -0.0217 C   0  0
    2.5024    1.3797   -0.0183 C   0  0
    1.2855    3.5366   -0.0316 C   0  0
    4.9449    1.4060   -0.0153 C   0  0
    3.7443    3.5294   -0.0284 C   0  0
   -3.6897    0.7367   -0.0228 C   0  0
   -4.8867    2.8694   -0.0360 C   0  0
   -1.2164    0.7093   -0.0195 C   0  0
   -2.4435    2.8684   -0.0328 C   0  0
   -4.9225    1.4523   -0.0283 C   0  0
   -2.4476    1.4443   -0.0251 C   0  0
   -3.6928    3.5493   -0.0381 C   0  0
   -1.1835    3.5757   -0.0350 C   0  0
   -1.1190    4.9963   -0.0427 C   0  0
    1.3107    4.9630   -0.0394 C   0  0
    3.7429    4.9516   -0.0362 C   0  0
    0.0799    5.6664   -0.0448 C   0  0
    2.5593    5.6452   -0.0415 C   0  0
    2.5579    6.7362   -0.0474 H   0  0
   -0.0083   -1.4416   -0.0062 C   0  0
    2.4729   -1.4651   -0.0029 C   0  0
   -1.2327   -0.7185   -0.0117 C   0  0
    1.2352   -0.7420   -0.0084 C   0  0
    3.7198   -0.7766   -0.0050 C   0  0
   -4.9551   -1.3798   -0.0129 C   0  0
   -2.4804   -1.4263   -0.0095 C   0  0
   -6.1677   -0.6355   -0.0185 C   0  0
   -3.7057   -0.6913   -0.0151 C   0  0
   -6.1524    0.7359   -0.0260 C   0  0
    1.2058   -3.5957    0.0071 C   0  0
    3.6703   -3.6314    0.0104 C   0  0
   -0.0289   -2.8760    0.0016 C   0  0
    2.4502   -2.8949    0.0049 C   0  0
    4.8950   -2.9186    0.0081 C   0  0
   -3.7719   -3.5031    0.0001 C   0  0
   -1.2636   -3.5844    0.0038 C   0  0
   -4.9507   -2.7970   -0.0052 C   0  0
   -2.5079   -2.8502   -0.0018 C   0  0
    4.9148   -1.5445    0.0007 C   0  0
   -0.0411   -5.7011    0.0169 C   0  0
    2.4399   -5.7284    0.0203 C   0  0
    1.2034   -5.0225    0.0148 C   0  0
    3.6343   -5.0550    0.0181 C   0  0
   -1.2267   -5.0064    0.0116 C   0  0
    4.6985    5.4732   -0.0378 H   0  0
    5.9012    0.8826   -0.0112 H   0  0
    5.8201    3.3102   -0.0253 H   0  0
    5.8815   -1.0444   -0.0008 H   0  0
    5.8310   -3.4797    0.0124 H   0  0
    4.5804   -5.5990    0.0223 H   0  0
    2.4172   -6.8193    0.0262 H   0  0
   -0.0461   -6.7925    0.0229 H   0  0
   -2.1578   -5.5694    0.0135 H   0  0
   -3.8179   -4.5903    0.0060 H   0  0
    0.0985    6.7574   -0.0507 H   0  0
   -2.0378    5.5785   -0.0470 H   0  0
   -3.7153    4.6367   -0.0441 H   0  0
   -5.8313    3.4164   -0.0402 H   0  0
   -5.9065   -3.3240   -0.0036 H   0  0
   -7.0864    1.3002   -0.0303 H   0  0
   -7.1146   -1.1783   -0.0168 H   0  0
   -0.5051    1.0849    0.9215 O   0  0
M  END

> <TOTAL ENERGY>
BIOVIA, TYPE=DOUBLE, VERSION=1                                                  
 -1913.63125021

> <BINDING ENERGY>
BIOVIA, TYPE=DOUBLE, VERSION=1                                                  
   -15.59525048

> <HOMO ENERGY>
BIOVIA, TYPE=DOUBLE, VERSION=1                                                  
    -0.17915964

> <LUMO ENERGY>
BIOVIA, TYPE=DOUBLE, VERSION=1                                                  
    -0.10705819

> <LUMO-HOMO ENERGY>
BIOVIA, TYPE=DOUBLE, VERSION=1                                                  
     0.07210145

> <OPERATION STATUS>
BIOVIA, TYPE=STATUS, VERSION=1                                                  
SUCCESS

$$$$
