Materials Studio SDF calculation
TCVAMP81A 

 67  0  0  0  0  0              1 V2000
    1.2978    0.6963   -0.0161 C   0  0
    0.0814    2.8562   -0.0295 C   0  0
    3.7803    0.6832   -0.0129 C   0  0
    2.5612    2.8248   -0.0261 C   0  0
    5.0032    2.7985   -0.0228 C   0  0
    0.0698    1.4218   -0.0217 C   0  0
    2.5486    1.3946   -0.0183 C   0  0
    1.3317    3.5515   -0.0316 C   0  0
    4.9912    1.4209   -0.0153 C   0  0
    3.7906    3.5444   -0.0284 C   0  0
   -3.6434    0.7516   -0.0228 C   0  0
   -4.8405    2.8843   -0.0360 C   0  0
   -1.1702    0.7242   -0.0195 C   0  0
   -2.3972    2.8833   -0.0328 C   0  0
   -4.8763    1.4672   -0.0283 C   0  0
   -2.4014    1.4593   -0.0251 C   0  0
   -3.6466    3.5642   -0.0381 C   0  0
   -1.1373    3.5906   -0.0350 C   0  0
   -1.0728    5.0112   -0.0427 C   0  0
    1.3570    4.9779   -0.0394 C   0  0
    3.7892    4.9665   -0.0362 C   0  0
    0.1261    5.6814   -0.0448 C   0  0
    2.6056    5.6602   -0.0415 C   0  0
    2.6041    6.7511   -0.0474 H   0  0
    0.0380   -1.4267   -0.0062 C   0  0
    2.5192   -1.4501   -0.0029 C   0  0
   -1.1864   -0.7035   -0.0117 C   0  0
    1.2814   -0.7271   -0.0084 C   0  0
    3.7660   -0.7617   -0.0050 C   0  0
   -4.9089   -1.3649   -0.0129 C   0  0
   -2.4341   -1.4113   -0.0095 C   0  0
   -6.1215   -0.6206   -0.0185 C   0  0
   -3.6595   -0.6764   -0.0151 C   0  0
   -6.1061    0.7508   -0.0260 C   0  0
    1.2521   -3.5808    0.0071 C   0  0
    3.7166   -3.6165    0.0104 C   0  0
    0.0174   -2.8611    0.0016 C   0  0
    2.4964   -2.8799    0.0049 C   0  0
    4.9412   -2.9036    0.0081 C   0  0
   -3.7256   -3.4882    0.0001 C   0  0
   -1.2174   -3.5695    0.0038 C   0  0
   -4.9044   -2.7820   -0.0052 C   0  0
   -2.4616   -2.8352   -0.0018 C   0  0
    4.9611   -1.5296    0.0007 C   0  0
    0.0052   -5.6862    0.0169 C   0  0
    2.4862   -5.7135    0.0203 C   0  0
    1.2497   -5.0076    0.0148 C   0  0
    3.6805   -5.0401    0.0181 C   0  0
   -1.1805   -4.9915    0.0116 C   0  0
    4.7448    5.4881   -0.0378 H   0  0
    5.9475    0.8975   -0.0112 H   0  0
    5.8664    3.3251   -0.0253 H   0  0
    5.9278   -1.0295   -0.0008 H   0  0
    5.8773   -3.4648    0.0124 H   0  0
    4.6267   -5.5841    0.0223 H   0  0
    2.4634   -6.8044    0.0262 H   0  0
    0.0002   -6.7776    0.0229 H   0  0
   -2.1115   -5.5545    0.0135 H   0  0
   -3.7717   -4.5754    0.0060 H   0  0
    0.1448    6.7723   -0.0507 H   0  0
   -1.9915    5.5934   -0.0470 H   0  0
   -3.6690    4.6517   -0.0441 H   0  0
   -5.7850    3.4313   -0.0402 H   0  0
   -5.8603   -3.3091   -0.0036 H   0  0
   -7.0402    1.3152   -0.0303 H   0  0
   -7.0684   -1.1634   -0.0168 H   0  0
   -3.5588    0.0998    0.9215 O   0  0
M  END

> <TOTAL ENERGY>
BIOVIA, TYPE=DOUBLE, VERSION=1                                                  
 -1913.62326984

> <BINDING ENERGY>
BIOVIA, TYPE=DOUBLE, VERSION=1                                                  
   -15.58727011

> <HOMO ENERGY>
BIOVIA, TYPE=DOUBLE, VERSION=1                                                  
    -0.17638287

> <LUMO ENERGY>
BIOVIA, TYPE=DOUBLE, VERSION=1                                                  
    -0.11059441

> <LUMO-HOMO ENERGY>
BIOVIA, TYPE=DOUBLE, VERSION=1                                                  
     0.06578846

> <OPERATION STATUS>
BIOVIA, TYPE=STATUS, VERSION=1                                                  
SUCCESS

$$$$
