Materials Studio SDF calculation
TCVAMP81A 

 67  0  0  0  0  0              1 V2000
    1.1369    0.6514    0.0000 C   0  0
   -0.0794    2.8114    0.0000 C   0  0
    3.6195    0.6383    0.0000 C   0  0
    2.4004    2.7799    0.0000 C   0  0
    4.8424    2.7536    0.0000 C   0  0
   -0.0911    1.3769    0.0000 C   0  0
    2.3878    1.3497    0.0000 C   0  0
    1.1709    3.5067    0.0000 C   0  0
    4.8303    1.3760    0.0000 C   0  0
    3.6297    3.4995    0.0000 C   0  0
   -3.8043    0.7067    0.0000 C   0  0
   -5.0013    2.8395    0.0000 C   0  0
   -1.3310    0.6793    0.0000 C   0  0
   -2.5580    2.8385    0.0000 C   0  0
   -5.0371    1.4224    0.0000 C   0  0
   -2.5622    1.4144    0.0000 C   0  0
   -3.8074    3.5194    0.0000 C   0  0
   -1.2981    3.5458    0.0000 C   0  0
   -1.2336    4.9664    0.0000 C   0  0
    1.1962    4.9331    0.0000 C   0  0
    3.6284    4.9217    0.0000 C   0  0
   -0.0347    5.6366    0.0000 C   0  0
    2.4448    5.6153    0.0000 C   0  0
    2.4433    6.7063    0.0000 H   0  0
   -0.1228   -1.4716    0.0000 C   0  0
    2.3584   -1.4950    0.0000 C   0  0
   -1.3472   -0.7484    0.0000 C   0  0
    1.1206   -0.7720    0.0000 C   0  0
    3.6052   -0.8066    0.0000 C   0  0
   -5.0697   -1.4097    0.0000 C   0  0
   -2.5950   -1.4562    0.0000 C   0  0
   -6.2823   -0.6654    0.0000 C   0  0
   -3.8203   -0.7213    0.0000 C   0  0
   -6.2669    0.7060    0.0000 C   0  0
    1.0913   -3.6257    0.0000 C   0  0
    3.5557   -3.6614    0.0000 C   0  0
   -0.1434   -2.9060    0.0000 C   0  0
    2.3356   -2.9249    0.0000 C   0  0
    4.7804   -2.9486    0.0000 C   0  0
   -3.8864   -3.5331    0.0000 C   0  0
   -1.3782   -3.6144    0.0000 C   0  0
   -5.0653   -2.8269    0.0000 C   0  0
   -2.6224   -2.8801    0.0000 C   0  0
    4.8003   -1.5745    0.0000 C   0  0
   -0.1556   -5.7311    0.0000 C   0  0
    2.3253   -5.7585    0.0000 C   0  0
    1.0889   -5.0525    0.0000 C   0  0
    3.5197   -5.0851    0.0000 C   0  0
   -1.3413   -5.0364    0.0000 C   0  0
    4.5840    5.4432    0.0000 H   0  0
    5.7866    0.8526    0.0000 H   0  0
    6.0055    3.4803    0.0000 O   0  0
    5.7670   -1.0744    0.0000 H   0  0
    5.7165   -3.5097    0.0000 H   0  0
    4.4658   -5.6291    0.0000 H   0  0
    2.3026   -6.8494    0.0000 H   0  0
   -0.1606   -6.8226    0.0000 H   0  0
   -2.2723   -5.5994    0.0000 H   0  0
   -3.9325   -4.6203    0.0000 H   0  0
   -0.0160    6.7275    0.0000 H   0  0
   -2.1523    5.5487    0.0000 H   0  0
   -3.8298    4.6069    0.0000 H   0  0
   -5.9458    3.3865    0.0000 H   0  0
   -6.0211   -3.3540    0.0000 H   0  0
   -7.2010    1.2704    0.0000 H   0  0
   -7.2292   -1.2082    0.0000 H   0  0
    6.7557    2.8618    0.0000 H   0  0
M  END

> <TOTAL ENERGY>
BIOVIA, TYPE=DOUBLE, VERSION=1                                                  
 -1913.73004336

> <BINDING ENERGY>
BIOVIA, TYPE=DOUBLE, VERSION=1                                                  
   -15.69404363

> <HOMO ENERGY>
BIOVIA, TYPE=DOUBLE, VERSION=1                                                  
    -0.17427065

> <LUMO ENERGY>
BIOVIA, TYPE=DOUBLE, VERSION=1                                                  
    -0.09714792

> <LUMO-HOMO ENERGY>
BIOVIA, TYPE=DOUBLE, VERSION=1                                                  
     0.07712273

> <OPERATION STATUS>
BIOVIA, TYPE=STATUS, VERSION=1                                                  
SUCCESS

$$$$
