Materials Studio SDF calculation
TCVAMP81A 

 69  0  0  0  0  0              1 V2000
    1.0194    0.8277    0.0000 C   0  0
   -0.2054    2.9856    0.0000 C   0  0
    3.4842    0.8434    0.0000 C   0  0
    2.2625    2.9736    0.0000 C   0  0
    4.7043    2.9702    0.0000 C   0  0
   -0.2067    1.5491    0.0000 C   0  0
    2.2572    1.5508    0.0000 C   0  0
    1.0351    3.6932    0.0000 C   0  0
    4.7233    1.5713    0.0000 C   0  0
    3.5040    3.6898    0.0000 C   0  0
   -3.9185    0.8755    0.0000 C   0  0
   -5.1233    3.0021    0.0000 C   0  0
   -1.4366    0.8364    0.0000 C   0  0
   -2.6791    2.9976    0.0000 C   0  0
   -5.1541    1.5874    0.0000 C   0  0
   -2.6737    1.5740    0.0000 C   0  0
   -3.9269    3.6786    0.0000 C   0  0
   -1.4257    3.7157    0.0000 C   0  0
   -1.3726    5.1332    0.0000 C   0  0
    1.0540    5.1200    0.0000 C   0  0
    3.4867    5.1205    0.0000 C   0  0
   -0.1754    5.8153    0.0000 C   0  0
    2.3056    5.8092    0.0000 C   0  0
    2.2971    6.9007    0.0000 H   0  0
   -0.2016   -1.3323    0.0000 C   0  0
    2.2552   -1.3247    0.0000 C   0  0
   -1.4347   -0.5933    0.0000 C   0  0
    1.0211   -0.6024    0.0000 C   0  0
    3.4880   -0.5834    0.0000 C   0  0
   -5.1757   -1.2401    0.0000 C   0  0
   -2.6986   -1.2753    0.0000 C   0  0
   -6.3936   -0.5024    0.0000 C   0  0
   -3.9285   -0.5477    0.0000 C   0  0
   -6.3830    0.8681    0.0000 C   0  0
    1.0467   -3.5686    0.0000 C   0  0
    3.5611   -3.3514    0.0000 C   0  0
   -0.1947   -2.7861    0.0000 C   0  0
    2.2796   -2.7603    0.0000 C   0  0
    4.7443   -2.6499    0.0000 C   0  0
   -3.9828   -3.3513    0.0000 C   0  0
   -1.4808   -3.4221    0.0000 C   0  0
   -5.1671   -2.6548    0.0000 C   0  0
   -2.7260   -2.6855    0.0000 C   0  0
    4.7493   -1.2495    0.0000 C   0  0
   -0.3770   -5.5627    0.0000 C   0  0
    5.9702   -0.5071    0.0000 C   0  0
    0.9347   -5.0422    0.0000 C   0  0
    5.9618    0.8565    0.0000 C   0  0
   -1.5297   -4.8146    0.0000 C   0  0
    4.4421    5.6490    0.0000 H   0  0
    3.6195   -4.4245    0.0000 H   0  0
    5.6531    3.5122    0.0000 H   0  0
    2.0075   -6.1630    0.0000 C   0  0
    5.6928   -3.1931    0.0000 H   0  0
    6.8928    1.4264    0.0000 H   0  0
    6.9097   -1.0630    0.0000 H   0  0
   -0.5097   -6.6343    0.0000 H   0  0
   -2.4774   -5.3464    0.0000 H   0  0
   -4.0306   -4.4374    0.0000 H   0  0
   -0.1662    6.9068    0.0000 H   0  0
   -2.2952    5.7099    0.0000 H   0  0
   -3.9473    4.7663    0.0000 H   0  0
   -6.0674    3.5503    0.0000 H   0  0
   -6.1193   -3.1888    0.0000 H   0  0
   -7.3181    1.4313    0.0000 H   0  0
   -7.3370   -1.0518    0.0000 H   0  0
    1.4664   -7.4268    0.0000 O   0  0
    3.2335   -6.0570    0.0000 O   0  0
    2.1774   -8.1038    0.0000 H   0  0
M  END

> <TOTAL ENERGY>
BIOVIA, TYPE=DOUBLE, VERSION=1                                                  
 -2027.00029264

> <BINDING ENERGY>
BIOVIA, TYPE=DOUBLE, VERSION=1                                                  
   -16.17106448

> <HOMO ENERGY>
BIOVIA, TYPE=DOUBLE, VERSION=1                                                  
    -0.17413990

> <LUMO ENERGY>
BIOVIA, TYPE=DOUBLE, VERSION=1                                                  
    -0.11586470

> <LUMO-HOMO ENERGY>
BIOVIA, TYPE=DOUBLE, VERSION=1                                                  
     0.05827520

> <OPERATION STATUS>
BIOVIA, TYPE=STATUS, VERSION=1                                                  
SUCCESS

$$$$
