Materials Studio SDF calculation
TCVAMP81A 

 72  0  0  0  0  0              1 V2000
    1.2002    0.4281    0.0477 C   0  0
   -0.0039    2.6005    0.0420 C   0  0
    3.6836    0.4095    0.0449 C   0  0
    2.4640    2.5554    0.0706 C   0  0
    4.9151    2.5139    0.0828 C   0  0
   -0.0211    1.1597    0.0436 C   0  0
    2.4534    1.1257    0.0524 C   0  0
    1.2463    3.3015    0.0684 C   0  0
    4.9010    1.1416    0.0598 C   0  0
    3.7062    3.2515    0.0884 C   0  0
   -3.7383    0.4987   -0.0233 C   0  0
   -4.9172    2.6085   -0.2239 C   0  0
   -1.2622    0.4621    0.0431 C   0  0
   -2.4878    2.6238   -0.0424 C   0  0
   -4.9450    1.2112   -0.1724 C   0  0
   -2.4967    1.1966    0.0004 C   0  0
   -3.7176    3.3020   -0.1465 C   0  0
   -1.2198    3.3294    0.0143 C   0  0
   -1.1561    4.7407    0.0465 C   0  0
    1.2754    4.7358    0.0903 C   0  0
    3.7161    4.6659    0.1122 C   0  0
    0.0374    5.4240    0.0867 C   0  0
    2.5540    5.4127    0.1156 C   0  0
   -0.0607   -1.6928    0.0638 C   0  0
    2.4206   -1.7237    0.0335 C   0  0
   -1.2821   -0.9659    0.0624 C   0  0
    1.1827   -0.9967    0.0484 C   0  0
    3.6668   -1.0364    0.0251 C   0  0
   -4.9857   -1.6247    0.2608 C   0  0
   -2.5337   -1.6728    0.1089 C   0  0
   -6.2747   -0.8523    0.4004 C   0  0
   -3.7604   -0.9482    0.1059 C   0  0
   -6.2390    0.4670   -0.3730 C   0  0
    1.1507   -3.8504    0.0455 C   0  0
    3.6212   -3.8807   -0.0037 C   0  0
   -0.0809   -3.1312    0.0773 C   0  0
    2.3969   -3.1543    0.0233 C   0  0
    4.8466   -3.1756   -0.0165 C   0  0
   -3.8060   -3.7397    0.3227 C   0  0
   -1.3116   -3.8377    0.1222 C   0  0
   -4.9877   -3.0161    0.3801 C   0  0
   -2.5596   -3.0990    0.1792 C   0  0
    4.8621   -1.8006    0.0010 C   0  0
   -0.0925   -5.9543    0.0649 C   0  0
    2.3836   -5.9846    0.0067 C   0  0
    1.1506   -5.2769    0.0395 C   0  0
    3.5810   -5.3129   -0.0163 C   0  0
   -1.2775   -5.2556    0.1076 C   0  0
    4.6792    5.1729    0.1267 H   0  0
    5.8521    0.6140    0.0577 H   0  0
    5.8272   -1.2992   -0.0077 H   0  0
    5.7793   -3.7361   -0.0374 H   0  0
    2.3627   -7.0772   -0.0012 H   0  0
   -0.1017   -7.0451    0.0471 H   0  0
   -2.2095   -5.8170    0.1182 H   0  0
   -3.8567   -4.8238    0.4061 H   0  0
    0.0443    6.5090    0.1142 H   0  0
   -2.0741    5.3244    0.0480 H   0  0
   -3.7427    4.3887   -0.1857 H   0  0
   -5.8569    3.1563   -0.3280 H   0  0
   -5.9375   -3.5355    0.5195 H   0  0
   -7.0819    1.0865   -0.0212 H   0  0
   -7.1072   -1.4451   -0.0040 H   0  0
   -6.4258    0.1232   -1.7647 O   0  0
   -5.9648    0.7951   -2.2936 H   0  0
    2.6703    6.8952    0.1480 C   0  0
    1.7591    7.7117    0.1694 O   0  0
    3.9767    7.3220    0.1513 O   0  0
    3.9076    8.2972    0.1728 H   0  0
    5.8629    3.0542    0.0976 H   0  0
    4.7964   -5.9473   -0.0493 O   0  0
    4.6430   -6.9071   -0.0547 H   0  0
M  END

> <TOTAL ENERGY>
BIOVIA, TYPE=DOUBLE, VERSION=1                                                  
 -2177.93236702

> <BINDING ENERGY>
BIOVIA, TYPE=DOUBLE, VERSION=1                                                  
   -16.60202916

> <HOMO ENERGY>
BIOVIA, TYPE=DOUBLE, VERSION=1                                                  
    -0.18511259

> <LUMO ENERGY>
BIOVIA, TYPE=DOUBLE, VERSION=1                                                  
    -0.14587498

> <LUMO-HOMO ENERGY>
BIOVIA, TYPE=DOUBLE, VERSION=1                                                  
     0.03923761

> <OPERATION STATUS>
BIOVIA, TYPE=STATUS, VERSION=1                                                  
SUCCESS

$$$$
