Materials Studio SDF calculation
TCVAMP81A 

 67  0  0  0  0  0              1 V2000
    1.3331    0.6986   -0.0174 C   0  0
    0.1110    2.8578   -0.0306 C   0  0
    3.8170    0.6873   -0.0131 C   0  0
    2.5893    2.8293   -0.0261 C   0  0
    5.0349    2.8052   -0.0218 C   0  0
    0.1036    1.4233   -0.0233 C   0  0
    2.5846    1.3999   -0.0189 C   0  0
    1.3594    3.5543   -0.0320 C   0  0
    5.0287    1.4311   -0.0148 C   0  0
    3.8245    3.5421   -0.0276 C   0  0
   -3.6084    0.7455   -0.0262 C   0  0
   -4.8103    2.8755   -0.0392 C   0  0
   -1.1350    0.7230   -0.0218 C   0  0
   -2.3671    2.8798   -0.0350 C   0  0
   -4.8432    1.4589   -0.0320 C   0  0
   -2.3680    1.4562   -0.0277 C   0  0
   -3.6172    3.5573   -0.0406 C   0  0
   -1.1093    3.5909   -0.0364 C   0  0
   -1.0454    5.0113   -0.0436 C   0  0
    1.3847    4.9801   -0.0392 C   0  0
    3.8158    4.9658   -0.0349 C   0  0
    0.1538    5.6822   -0.0449 C   0  0
    2.6346    5.6621   -0.0405 C   0  0
    2.6330    6.7534   -0.0461 H   0  0
    0.0779   -1.4266   -0.0088 C   0  0
    2.5589   -1.4478   -0.0043 C   0  0
   -1.1479   -0.7041   -0.0146 C   0  0
    1.3202   -0.7241   -0.0102 C   0  0
    3.8039   -0.7575   -0.0057 C   0  0
   -4.8688   -1.3730   -0.0176 C   0  0
   -2.3939   -1.4149   -0.0131 C   0  0
   -6.0843   -0.6316   -0.0235 C   0  0
   -3.6212   -0.6820   -0.0190 C   0  0
   -6.0719    0.7395   -0.0305 C   0  0
    1.2950   -3.5798    0.0044 C   0  0
    3.7600   -3.6120    0.0088 C   0  0
    0.0594   -2.8610   -0.0015 C   0  0
    2.5378   -2.8771    0.0029 C   0  0
    4.9835   -2.8971    0.0073 C   0  0
   -3.6807   -3.4932   -0.0047 C   0  0
   -1.1739   -3.5720    0.0000 C   0  0
   -4.8613   -2.7900   -0.0103 C   0  0
   -2.4186   -2.8383   -0.0059 C   0  0
    5.0021   -1.5231    0.0003 C   0  0
    0.0513   -5.6857    0.0130 C   0  0
    2.5320   -5.7102    0.0174 C   0  0
    1.2947   -5.0059    0.0116 C   0  0
    3.7257   -5.0354    0.0160 C   0  0
   -1.1356   -4.9933    0.0074 C   0  0
    4.7714    5.4930   -0.0360 H   0  0
    5.9832    0.9089   -0.0105 H   0  0
    5.9812    3.3488   -0.0229 H   0  0
    5.9658   -1.0182   -0.0006 H   0  0
    5.9199   -3.4577    0.0117 H   0  0
    4.6715   -5.5796    0.0204 H   0  0
    2.5108   -6.8013    0.0229 H   0  0
    0.0489   -6.7770    0.0185 H   0  0
   -2.0651   -5.5587    0.0086 H   0  0
   -3.7253   -4.5802    0.0008 H   0  0
    0.1711    6.7734   -0.0505 H   0  0
   -1.9645    5.5934   -0.0481 H   0  0
   -3.6421    4.6449   -0.0462 H   0  0
   -5.7542    3.4233   -0.0436 H   0  0
   -5.8150   -3.3207   -0.0093 H   0  0
   -7.0062    1.3034   -0.0350 H   0  0
   -7.0286   -1.1786   -0.0223 H   0  0
   -6.0708    0.1080    1.0564 O   0  0
M  END

> <TOTAL ENERGY>
BIOVIA, TYPE=DOUBLE, VERSION=1                                                  
 -1913.70004632

> <BINDING ENERGY>
BIOVIA, TYPE=DOUBLE, VERSION=1                                                  
   -15.66404660

> <HOMO ENERGY>
BIOVIA, TYPE=DOUBLE, VERSION=1                                                  
    -0.17559215

> <LUMO ENERGY>
BIOVIA, TYPE=DOUBLE, VERSION=1                                                  
    -0.10429268

> <LUMO-HOMO ENERGY>
BIOVIA, TYPE=DOUBLE, VERSION=1                                                  
     0.07129948

> <OPERATION STATUS>
BIOVIA, TYPE=STATUS, VERSION=1                                                  
SUCCESS

$$$$
