Materials Studio SDF calculation
TCVAMP81A 

 69  0  0  0  0  0              1 V2000
    1.3666    0.8050   -0.0633 C   0  0
    0.1626    2.9723   -0.0759 C   0  0
    3.8507    0.7769   -0.0839 C   0  0
    2.6382    2.9267   -0.0948 C   0  0
    5.0827    2.8853   -0.1093 C   0  0
    0.1425    1.5380   -0.0578 C   0  0
    2.6227    1.4974   -0.0805 C   0  0
    1.4136    3.6596   -0.0953 C   0  0
    5.0663    1.5110   -0.0961 C   0  0
    3.8787    3.6305   -0.1105 C   0  0
   -3.5694    0.8980    0.0030 C   0  0
   -4.7556    3.0620   -0.0186 C   0  0
   -1.1019    0.8476   -0.0348 C   0  0
   -2.3118    3.0230   -0.0526 C   0  0
   -4.8191    1.6292    0.0155 C   0  0
   -2.3343    1.5898   -0.0281 C   0  0
   -3.5607    3.7202   -0.0515 C   0  0
   -1.0565    3.7154   -0.0763 C   0  0
   -0.9796    5.1391   -0.1032 C   0  0
    1.4499    5.0871   -0.1168 C   0  0
    3.8801    5.0539   -0.1281 C   0  0
    0.2227    5.7992   -0.1224 C   0  0
    2.7027    5.7598   -0.1324 C   0  0
    0.0975   -1.3102   -0.0314 C   0  0
    2.5796   -1.3512   -0.0592 C   0  0
   -1.1258   -0.5781   -0.0198 C   0  0
    1.3439   -0.6194   -0.0511 C   0  0
    3.8287   -0.6684   -0.0757 C   0  0
   -4.8402   -1.2235    0.0607 C   0  0
   -2.3782   -1.2771    0.0069 C   0  0
   -6.1612   -0.5005    0.1438 C   0  0
   -3.6033   -0.5359    0.0247 C   0  0
   -6.0316    0.9733    0.0527 C   0  0
    1.3009   -3.4716   -0.0300 C   0  0
    3.7716   -3.5137   -0.0589 C   0  0
    0.0719   -2.7459   -0.0202 C   0  0
    2.5503   -2.7811   -0.0497 C   0  0
    4.9999   -2.8133   -0.0761 C   0  0
   -3.6656   -3.3466    0.0390 C   0  0
   -1.1642   -3.4468    0.0019 C   0  0
   -4.8462   -2.6208    0.0628 C   0  0
   -2.4095   -2.7041    0.0159 C   0  0
    5.0206   -1.4383   -0.0839 C   0  0
    0.0477   -5.5693    0.0062 C   0  0
    2.5240   -5.6113   -0.0265 C   0  0
    1.2945   -4.8977   -0.0174 C   0  0
    3.7249   -4.9449   -0.0483 C   0  0
   -1.1345   -4.8650    0.0158 C   0  0
    4.8402    5.5731   -0.1392 H   0  0
    6.0180    0.9834   -0.0961 H   0  0
    5.9875   -0.9398   -0.0967 H   0  0
    5.9304   -3.3780   -0.0828 H   0  0
    2.4981   -6.7039   -0.0162 H   0  0
    0.0339   -6.6603    0.0181 H   0  0
   -2.0682   -5.4235    0.0357 H   0  0
   -3.7244   -4.4331    0.0395 H   0  0
    0.2491    6.8900   -0.1420 H   0  0
   -1.8933    5.7290   -0.1074 H   0  0
   -3.5693    4.8076   -0.0741 H   0  0
   -5.6935    3.6197   -0.0155 H   0  0
   -5.8049   -3.1407    0.1010 H   0  0
   -6.9588    1.5485    0.0678 H   0  0
   -6.8358   -0.8758   -0.6466 H   0  0
   -6.8929   -0.8702    1.3607 O   0  0
   -6.3602   -0.5290    2.1026 H   0  0
    2.7097    6.8509   -0.1478 H   0  0
    6.0342    3.4199   -0.1196 H   0  0
    4.9371   -5.5873   -0.0590 O   0  0
    4.7765   -6.5461   -0.0509 H   0  0
M  END

> <TOTAL ENERGY>
BIOVIA, TYPE=DOUBLE, VERSION=1                                                  
 -1989.46063259

> <BINDING ENERGY>
BIOVIA, TYPE=DOUBLE, VERSION=1                                                  
   -15.92423329

> <HOMO ENERGY>
BIOVIA, TYPE=DOUBLE, VERSION=1                                                  
    -0.15268571

> <LUMO ENERGY>
BIOVIA, TYPE=DOUBLE, VERSION=1                                                  
    -0.13544490

> <LUMO-HOMO ENERGY>
BIOVIA, TYPE=DOUBLE, VERSION=1                                                  
     0.01724082

> <OPERATION STATUS>
BIOVIA, TYPE=STATUS, VERSION=1                                                  
SUCCESS

$$$$
