Materials Studio SDF calculation
TCVAMP81A 

 67  0  0  0  0  0              1 V2000
    1.2393    0.5276    0.0000 C   0  0
    0.0252    2.6867    0.0000 C   0  0
    3.7130    0.5208    0.0000 C   0  0
    2.5008    2.6571    0.0000 C   0  0
    4.9483    2.6336    0.0000 C   0  0
    0.0134    1.2525    0.0000 C   0  0
    2.4874    1.2364    0.0000 C   0  0
    1.2742    3.3836    0.0000 C   0  0
    4.9590    1.2325    0.0000 C   0  0
    3.7509    3.3616    0.0000 C   0  0
   -3.6995    0.5796    0.0000 C   0  0
   -4.8983    2.7102    0.0000 C   0  0
   -1.2257    0.5508    0.0000 C   0  0
   -2.4548    2.7105    0.0000 C   0  0
   -4.9327    1.2945    0.0000 C   0  0
   -2.4579    1.2871    0.0000 C   0  0
   -3.7027    3.3907    0.0000 C   0  0
   -1.1940    3.4217    0.0000 C   0  0
   -1.1284    4.8385    0.0000 C   0  0
    1.3018    4.8089    0.0000 C   0  0
    3.7383    4.7933    0.0000 C   0  0
    0.0755    5.5109    0.0000 C   0  0
    2.5602    5.4883    0.0000 C   0  0
    2.5605    6.5799    0.0000 H   0  0
   -0.0111   -1.5996    0.0000 C   0  0
    2.4693   -1.6199    0.0000 C   0  0
   -1.2369   -0.8748    0.0000 C   0  0
    1.2294   -0.8959    0.0000 C   0  0
    3.7073   -0.9052    0.0000 C   0  0
   -4.9633   -1.5371    0.0000 C   0  0
   -2.4886   -1.5828    0.0000 C   0  0
   -6.1785   -0.7933    0.0000 C   0  0
   -3.7139   -0.8481    0.0000 C   0  0
   -6.1640    0.5771    0.0000 C   0  0
    1.2121   -3.7632    0.0000 C   0  0
    3.7236   -3.7112    0.0000 C   0  0
   -0.0213   -3.0358    0.0000 C   0  0
    2.4758   -3.0419    0.0000 C   0  0
    4.9201   -3.0219    0.0000 C   0  0
   -3.7753   -3.6567    0.0000 C   0  0
   -1.2655   -3.7439    0.0000 C   0  0
   -4.9579   -2.9520    0.0000 C   0  0
   -2.5153   -3.0025    0.0000 C   0  0
    4.9463   -1.6112    0.0000 C   0  0
   -0.0432   -5.8526    0.0000 C   0  0
    6.1743   -0.8786    0.0000 C   0  0
    1.1685   -5.1685    0.0000 C   0  0
    6.1820    0.4886    0.0000 C   0  0
   -1.2435   -5.1514    0.0000 C   0  0
    4.6951    5.3192    0.0000 H   0  0
    3.7561   -4.7989    0.0000 H   0  0
    5.8993    3.1717    0.0000 H   0  0
    2.0908   -5.7463    0.0000 H   0  0
    5.8662   -3.5670    0.0000 H   0  0
    7.1255    1.0376    0.0000 H   0  0
    7.1125   -1.4369    0.0000 H   0  0
   -0.0509   -6.9431    0.0000 H   0  0
   -2.1750   -5.7135    0.0000 H   0  0
   -3.8213   -4.7439    0.0000 H   0  0
    0.0921    6.6024    0.0000 H   0  0
   -2.0462    5.4231    0.0000 H   0  0
   -3.7256    4.4786    0.0000 H   0  0
   -5.8426    3.2582    0.0000 H   0  0
   -5.9127   -3.4817    0.0000 H   0  0
   -7.0980    1.1422    0.0000 H   0  0
   -7.1246   -1.3381    0.0000 O   0  0
   -7.9246   -1.9381    0.0000 H   0  0
M  END

> <TOTAL ENERGY>
BIOVIA, TYPE=DOUBLE, VERSION=1                                                  
 -1913.74509613

> <BINDING ENERGY>
BIOVIA, TYPE=DOUBLE, VERSION=1                                                  
   -15.70909641

> <HOMO ENERGY>
BIOVIA, TYPE=DOUBLE, VERSION=1                                                  
    -0.16820116

> <LUMO ENERGY>
BIOVIA, TYPE=DOUBLE, VERSION=1                                                  
    -0.10574910

> <LUMO-HOMO ENERGY>
BIOVIA, TYPE=DOUBLE, VERSION=1                                                  
     0.06245207

> <OPERATION STATUS>
BIOVIA, TYPE=STATUS, VERSION=1                                                  
SUCCESS

$$$$
