Materials Studio SDF calculation
TCVAMP81A 

 67  0  0  0  0  0              1 V2000
    1.3141    0.7416   -0.0115 C   0  0
    0.0822    2.8709   -0.0115 C   0  0
    3.7741    0.7437   -0.0115 C   0  0
    2.5422    2.8730   -0.0115 C   0  0
    5.0022    2.8752   -0.0115 C   0  0
    0.0835    1.4506   -0.0115 C   0  0
    2.5435    1.4528   -0.0115 C   0  0
    1.3116    3.5821   -0.0115 C   0  0
    5.0035    1.4549   -0.0115 C   0  0
    3.7716    3.5843   -0.0115 C   0  0
   -3.5859    0.7416   -0.0115 C   0  0
   -4.8178    2.8709   -0.0115 C   0  0
   -1.1259    0.7437   -0.0115 C   0  0
   -2.3578    2.8730   -0.0115 C   0  0
   -4.8165    1.4506   -0.0115 C   0  0
   -2.3565    1.4528   -0.0115 C   0  0
   -3.5884    3.5821   -0.0115 C   0  0
   -1.1284    3.5843   -0.0115 C   0  0
   -1.1178    5.0709   -0.0115 C   0  0
    1.3422    5.0730   -0.0115 C   0  0
    3.8022    5.0752   -0.0115 C   0  0
    0.1116    5.7821   -0.0115 C   0  0
    2.5716    5.7843   -0.0115 C   0  0
    2.6715    6.7811   -0.0114 H   0  0
    0.1141   -1.4584   -0.0115 C   0  0
    2.5741   -1.4563   -0.0115 C   0  0
   -1.1165   -0.7494   -0.0115 C   0  0
    1.3435   -0.7472   -0.0115 C   0  0
    3.8035   -0.7451   -0.0115 C   0  0
   -4.7859   -1.4584   -0.0115 C   0  0
   -2.3259   -1.4563   -0.0115 C   0  0
   -6.0165   -0.7494   -0.0115 C   0  0
   -3.5565   -0.7472   -0.0115 C   0  0
   -6.0165    0.6506   -0.0115 C   0  0
    1.2066   -3.8338   -0.0115 C   0  0
    3.6666   -3.8316   -0.0115 C   0  0
   -0.0240   -3.1247   -0.0115 C   0  0
    2.4360   -3.1225   -0.0115 C   0  0
    4.8960   -3.1204   -0.0115 C   0  0
   -3.6934   -3.8338   -0.0115 C   0  0
   -1.2334   -3.8316   -0.0115 C   0  0
   -4.9240   -3.1247   -0.0115 C   0  0
   -2.4640   -3.1225   -0.0115 C   0  0
    5.0290   -1.6989   -0.0116 C   0  0
   -0.1032   -6.0955    0.0754 C   0  0
    2.3568   -6.0934    0.0754 C   0  0
    1.1262   -5.3843    0.0754 C   0  0
    3.5862   -5.3822    0.0754 C   0  0
   -1.3138   -5.3822    0.0754 C   0  0
    4.5214    5.6844   -0.0176 H   0  0
    6.0035    1.4549   -0.0115 H   0  0
    5.8244    3.3748   -0.0183 H   0  0
    5.8418   -1.2927   -0.0157 H   0  0
    5.5770   -3.7105   -0.0059 H   0  0
    4.4639   -5.8850    0.0823 H   0  0
    2.3192   -7.0728    0.0861 H   0  0
   -0.1313   -6.9633    0.0832 H   0  0
   -1.9353   -6.0310    0.0807 H   0  0
   -3.7215   -4.7015   -0.0036 H   0  0
    0.1407    6.7134   -0.0212 H   0  0
   -1.7979    5.7246   -0.0189 H   0  0
   -3.5593    4.9134   -0.0212 O   0  0
   -5.7168    2.9312   -0.0132 H   0  0
   -5.7390   -3.5672   -0.0082 H   0  0
   -6.8965    1.3106   -0.0190 H   0  0
   -6.8315   -1.1919   -0.0082 H   0  0
   -3.9593    5.7134   -0.0212 H   0  0
M  END

> <TOTAL ENERGY>
BIOVIA, TYPE=DOUBLE, VERSION=1                                                  
 -1913.72135755

> <BINDING ENERGY>
BIOVIA, TYPE=DOUBLE, VERSION=1                                                  
   -15.68535782

> <HOMO ENERGY>
BIOVIA, TYPE=DOUBLE, VERSION=1                                                  
    -0.17473794

> <LUMO ENERGY>
BIOVIA, TYPE=DOUBLE, VERSION=1                                                  
    -0.09712860

> <LUMO-HOMO ENERGY>
BIOVIA, TYPE=DOUBLE, VERSION=1                                                  
     0.07760934

> <OPERATION STATUS>
BIOVIA, TYPE=STATUS, VERSION=1                                                  
SUCCESS

$$$$
