Materials Studio SDF calculation
TCVAMP81A 

 67  0  0  0  0  0              1 V2000
    1.1957    0.7792   -0.0174 C   0  0
   -0.0263    2.9384   -0.0306 C   0  0
    3.6796    0.7679   -0.0131 C   0  0
    2.4520    2.9099   -0.0261 C   0  0
    4.8976    2.8858   -0.0218 C   0  0
   -0.0337    1.5039   -0.0233 C   0  0
    2.4472    1.4805   -0.0189 C   0  0
    1.2221    3.6349   -0.0320 C   0  0
    4.8914    1.5117   -0.0148 C   0  0
    3.6872    3.6227   -0.0276 C   0  0
   -3.7457    0.8261   -0.0262 C   0  0
   -4.9476    2.9561   -0.0392 C   0  0
   -1.2723    0.8036   -0.0218 C   0  0
   -2.5044    2.9604   -0.0350 C   0  0
   -4.9806    1.5395   -0.0320 C   0  0
   -2.5053    1.5368   -0.0277 C   0  0
   -3.7545    3.6379   -0.0406 C   0  0
   -1.2467    3.6715   -0.0364 C   0  0
   -1.1827    5.0919   -0.0436 C   0  0
    1.2474    5.0607   -0.0392 C   0  0
    3.6785    5.0464   -0.0349 C   0  0
    0.0165    5.7628   -0.0449 C   0  0
    2.4973    5.7427   -0.0405 C   0  0
    2.4957    6.8340   -0.0461 H   0  0
   -0.0594   -1.3460   -0.0088 C   0  0
    2.4216   -1.3672   -0.0043 C   0  0
   -1.2852   -0.6235   -0.0146 C   0  0
    1.1829   -0.6436   -0.0102 C   0  0
    3.6666   -0.6769   -0.0057 C   0  0
   -5.0061   -1.2924   -0.0176 C   0  0
   -2.5312   -1.3343   -0.0131 C   0  0
   -6.2216   -0.5510   -0.0235 C   0  0
   -3.7586   -0.6014   -0.0190 C   0  0
   -6.2092    0.8201   -0.0305 C   0  0
    1.1577   -3.4992    0.0044 C   0  0
    3.6227   -3.5314    0.0088 C   0  0
   -0.0779   -2.7804   -0.0015 C   0  0
    2.4005   -2.7965    0.0029 C   0  0
    4.8462   -2.8165    0.0073 C   0  0
   -3.8181   -3.4126   -0.0047 C   0  0
   -1.3112   -3.4914    0.0000 C   0  0
   -4.9987   -2.7094   -0.0103 C   0  0
   -2.5560   -2.7577   -0.0059 C   0  0
    4.8648   -1.4425    0.0003 C   0  0
   -0.0860   -5.6051    0.0130 C   0  0
    2.3947   -5.6297    0.0174 C   0  0
    1.1574   -4.9253    0.0116 C   0  0
    3.5883   -4.9548    0.0160 C   0  0
   -1.2729   -4.9127    0.0074 C   0  0
    4.6341    5.5736   -0.0360 H   0  0
    5.8458    0.9895   -0.0105 H   0  0
    5.8439    3.4294   -0.0229 H   0  0
    5.8285   -0.9376   -0.0006 H   0  0
    5.7826   -3.3771    0.0117 H   0  0
    4.5342   -5.4991    0.0204 H   0  0
    2.3735   -6.7207    0.0229 H   0  0
   -0.0884   -6.6964    0.0185 H   0  0
   -2.2024   -5.4781    0.0086 H   0  0
   -3.8626   -4.4996    0.0008 H   0  0
    0.0338    6.8540   -0.0505 H   0  0
   -2.1018    5.6740   -0.0481 H   0  0
   -3.7794    4.7255   -0.0462 H   0  0
   -5.8916    3.5039   -0.0436 H   0  0
   -5.9524   -3.2401   -0.0093 H   0  0
   -7.1435    1.3840   -0.0350 H   0  0
   -7.1659   -1.0980   -0.0223 H   0  0
    2.9919   -5.2114    1.0564 O   0  0
M  END

> <TOTAL ENERGY>
BIOVIA, TYPE=DOUBLE, VERSION=1                                                  
 -1913.69999602

> <BINDING ENERGY>
BIOVIA, TYPE=DOUBLE, VERSION=1                                                  
   -15.66399629

> <HOMO ENERGY>
BIOVIA, TYPE=DOUBLE, VERSION=1                                                  
    -0.17548408

> <LUMO ENERGY>
BIOVIA, TYPE=DOUBLE, VERSION=1                                                  
    -0.10429598

> <LUMO-HOMO ENERGY>
BIOVIA, TYPE=DOUBLE, VERSION=1                                                  
     0.07118810

> <OPERATION STATUS>
BIOVIA, TYPE=STATUS, VERSION=1                                                  
SUCCESS

$$$$
