Materials Studio SDF calculation
TCVAMP81A 

 70  0  0  0  0  0              1 V2000
    0.9989    0.3036   -0.0042 C   0  0
   -0.2089    2.4713   -0.0133 C   0  0
    3.4800    0.2901   -0.0078 C   0  0
    2.2603    2.4320   -0.0120 C   0  0
    4.7115    2.3944   -0.0134 C   0  0
   -0.2237    1.0345   -0.0064 C   0  0
    2.2477    1.0030   -0.0082 C   0  0
    1.0407    3.1775   -0.0142 C   0  0
    4.6954    1.0192   -0.0101 C   0  0
    3.4963    3.1375   -0.0139 C   0  0
   -3.9403    0.3598    0.0016 C   0  0
   -5.1352    2.4931   -0.0175 C   0  0
   -1.4649    0.3350   -0.0014 C   0  0
   -2.6931    2.4887   -0.0163 C   0  0
   -5.1724    1.0765   -0.0030 C   0  0
   -2.6980    1.0665   -0.0054 C   0  0
   -3.9404    3.1717   -0.0238 C   0  0
   -1.4323    3.1947   -0.0189 C   0  0
   -1.3691    4.6094   -0.0271 C   0  0
    1.0666    4.6127   -0.0171 C   0  0
    3.5104    4.5468   -0.0135 C   0  0
   -0.1785    5.2962   -0.0257 C   0  0
    2.3442    5.2902   -0.0133 C   0  0
   -0.2604   -1.8182    0.0091 C   0  0
    2.2203   -1.8438    0.0020 C   0  0
   -1.4831   -1.0931    0.0077 C   0  0
    0.9826   -1.1198    0.0024 C   0  0
    3.4664   -1.1547   -0.0045 C   0  0
   -5.2069   -1.7552    0.0248 C   0  0
   -2.7318   -1.8012    0.0161 C   0  0
   -6.4192   -1.0100    0.0210 C   0  0
   -3.9572   -1.0674    0.0141 C   0  0
   -6.4031    0.3611    0.0062 C   0  0
    0.9520   -3.9715    0.0169 C   0  0
    3.4235   -4.0004    0.0064 C   0  0
   -0.2809   -3.2525    0.0176 C   0  0
    2.1982   -3.2746    0.0082 C   0  0
    4.6494   -3.2937   -0.0018 C   0  0
   -4.0233   -3.8782    0.0410 C   0  0
   -1.5160   -3.9598    0.0272 C   0  0
   -5.2024   -3.1722    0.0396 C   0  0
   -2.7596   -3.2251    0.0279 C   0  0
    4.6623   -1.9193   -0.0070 C   0  0
   -0.2918   -6.0765    0.0357 C   0  0
    2.1855   -6.1036    0.0243 C   0  0
    0.9530   -5.3972    0.0257 C   0  0
    3.3840   -5.4309    0.0140 C   0  0
   -1.4773   -5.3807    0.0364 C   0  0
    4.4720    5.0517   -0.0144 H   0  0
    5.6494    0.4927   -0.0086 H   0  0
    5.6282   -1.4182   -0.0131 H   0  0
    5.5826   -3.8538   -0.0036 H   0  0
    2.1658   -7.1964    0.0312 H   0  0
   -0.2984   -7.1676    0.0428 H   0  0
   -2.4075   -5.9451    0.0435 H   0  0
   -4.0695   -4.9652    0.0537 H   0  0
   -0.1785    6.3818   -0.0308 H   0  0
   -2.2897    5.1892   -0.0329 H   0  0
   -3.9619    4.2589   -0.0346 H   0  0
   -6.0783    3.0424   -0.0230 H   0  0
   -6.1581   -3.6995    0.0498 H   0  0
   -7.3365    0.9265    0.0025 H   0  0
   -7.3664   -1.5523    0.0292 H   0  0
    5.8713    3.1207   -0.0150 O   0  0
    6.6231    2.5044   -0.0138 H   0  0
    4.1992   -6.0679    0.0113 H   0  0
    2.4646    6.7721   -0.0336 C   0  0
    1.5524    7.5877   -0.0412 O   0  0
    3.7724    7.1986   -0.0461 O   0  0
    3.7048    8.1738   -0.0795 H   0  0
M  END

> <TOTAL ENERGY>
BIOVIA, TYPE=DOUBLE, VERSION=1                                                  
 -2102.19719683

> <BINDING ENERGY>
BIOVIA, TYPE=DOUBLE, VERSION=1                                                  
   -16.36725854

> <HOMO ENERGY>
BIOVIA, TYPE=DOUBLE, VERSION=1                                                  
    -0.17920344

> <LUMO ENERGY>
BIOVIA, TYPE=DOUBLE, VERSION=1                                                  
    -0.10807664

> <LUMO-HOMO ENERGY>
BIOVIA, TYPE=DOUBLE, VERSION=1                                                  
     0.07112680

> <OPERATION STATUS>
BIOVIA, TYPE=STATUS, VERSION=1                                                  
SUCCESS

$$$$
