Materials Studio SDF calculation
TCVAMP81A 

 70  0  0  0  0  0              1 V2000
    1.5412    0.6150   -0.0934 C   0  0
    0.3287    2.7800   -0.0853 C   0  0
    4.0259    0.5979   -0.0967 C   0  0
    2.8065    2.7426   -0.0687 C   0  0
    5.2501    2.7110   -0.0636 C   0  0
    0.3147    1.3410   -0.0919 C   0  0
    2.7962    1.3127   -0.0872 C   0  0
    1.5798    3.4715   -0.0653 C   0  0
    5.2386    1.3365   -0.0853 C   0  0
    4.0439    3.4509   -0.0556 C   0  0
   -3.3996    0.6830   -0.1582 C   0  0
   -4.5825    2.7957   -0.3009 C   0  0
   -0.9250    0.6445   -0.0975 C   0  0
   -2.1507    2.8116   -0.1476 C   0  0
   -4.6069    1.3972   -0.2861 C   0  0
   -2.1582    1.3817   -0.1268 C   0  0
   -3.3835    3.4893   -0.2192 C   0  0
   -0.8829    3.5184   -0.1011 C   0  0
   -0.8177    4.9351   -0.0716 C   0  0
    1.6099    4.8981   -0.0447 C   0  0
    4.0403    4.8761   -0.0346 C   0  0
    0.3839    5.6043   -0.0416 C   0  0
    2.8635    5.5770   -0.0281 C   0  0
    2.8655    6.6681   -0.0116 H   0  0
    0.2810   -1.5077   -0.0958 C   0  0
    2.7629   -1.5353   -0.1149 C   0  0
   -0.9425   -0.7835   -0.0951 C   0  0
    1.5245   -0.8095   -0.1012 C   0  0
    4.0092   -0.8484   -0.1165 C   0  0
   -4.6450   -1.4491    0.0718 C   0  0
   -2.1931   -1.4918   -0.0639 C   0  0
   -5.9388   -0.6856    0.2179 C   0  0
   -3.4207   -0.7671   -0.0627 C   0  0
   -5.8999    0.6585   -0.5117 C   0  0
    1.4964   -3.6658   -0.1199 C   0  0
    3.9600   -3.7011   -0.1526 C   0  0
    0.2622   -2.9465   -0.0938 C   0  0
    2.7401   -2.9649   -0.1306 C   0  0
    5.1837   -2.9892   -0.1568 C   0  0
   -3.4639   -3.5638    0.1101 C   0  0
   -0.9671   -3.6557   -0.0616 C   0  0
   -4.6466   -2.8426    0.1667 C   0  0
   -2.2172   -2.9189   -0.0105 C   0  0
    5.2042   -1.6146   -0.1373 C   0  0
    0.2520   -5.7711   -0.1188 C   0  0
    2.7319   -5.7992   -0.1588 C   0  0
    1.4941   -5.0928   -0.1326 C   0  0
    3.9245   -5.1259   -0.1689 C   0  0
   -0.9339   -5.0743   -0.0820 C   0  0
    4.9992    5.3975   -0.0242 H   0  0
    6.1922    0.8124   -0.0908 H   0  0
    6.1997    3.2490   -0.0536 H   0  0
    6.1695   -1.1126   -0.1412 H   0  0
    6.1202   -3.5493   -0.1742 H   0  0
    4.8712   -5.6687   -0.1877 H   0  0
    2.7089   -6.8901   -0.1703 H   0  0
    0.2463   -6.8621   -0.1382 H   0  0
   -1.8662   -5.6352   -0.0786 H   0  0
   -3.5144   -4.6489    0.1768 H   0  0
    0.4040    6.6951   -0.0173 H   0  0
   -1.7357    5.5190   -0.0678 H   0  0
   -3.4108    4.5767   -0.2314 H   0  0
   -5.5247    3.3432   -0.3806 H   0  0
   -5.5976   -3.3646    0.2893 H   0  0
   -6.7448    1.2659   -0.1428 H   0  0
   -6.7635   -1.2675   -0.2180 H   0  0
   -6.1690   -0.2266    1.6454 O   0  0
   -5.4726    0.2814    1.6868 H   0  0
   -4.6198    2.9548    1.3954 O   0  0
   -3.8319    2.4372    1.5052 H   0  0
M  END

> <TOTAL ENERGY>
BIOVIA, TYPE=DOUBLE, VERSION=1                                                  
 -1990.03680405

> <BINDING ENERGY>
BIOVIA, TYPE=DOUBLE, VERSION=1                                                  
   -16.00071530

> <HOMO ENERGY>
BIOVIA, TYPE=DOUBLE, VERSION=1                                                  
    -0.16921699

> <LUMO ENERGY>
BIOVIA, TYPE=DOUBLE, VERSION=1                                                  
    -0.12139183

> <LUMO-HOMO ENERGY>
BIOVIA, TYPE=DOUBLE, VERSION=1                                                  
     0.04782516

> <OPERATION STATUS>
BIOVIA, TYPE=STATUS, VERSION=1                                                  
SUCCESS

$$$$
