Materials Studio SDF calculation
TCVAMP81A 

 72  0  0  0  0  0              1 V2000
    1.4129    0.7291   -0.0004 C   0  0
    0.2061    2.8959   -0.0041 C   0  0
    3.8951    0.7110   -0.0033 C   0  0
    2.6849    2.8549    0.0216 C   0  0
    5.1257    2.8208    0.0304 C   0  0
    0.1881    1.4571   -0.0043 C   0  0
    2.6666    1.4249    0.0047 C   0  0
    1.4584    3.5862    0.0201 C   0  0
    5.1080    1.4427    0.0084 C   0  0
    3.9167    3.5699    0.0374 C   0  0
   -3.5269    0.8063   -0.0724 C   0  0
   -4.7038    2.9187   -0.2596 C   0  0
   -1.0528    0.7631   -0.0067 C   0  0
   -2.2732    2.9321   -0.0829 C   0  0
   -4.7331    1.5211   -0.2151 C   0  0
   -2.2843    1.5029   -0.0473 C   0  0
   -3.5036    3.6109   -0.1820 C   0  0
   -1.0043    3.6364   -0.0294 C   0  0
   -0.9381    5.0531   -0.0000 C   0  0
    1.4890    5.0130    0.0398 C   0  0
    3.9208    4.9930    0.0586 C   0  0
    0.2635    5.7210    0.0373 C   0  0
    2.7414    5.6909    0.0615 C   0  0
    0.1482   -1.3905    0.0101 C   0  0
    2.6306   -1.4224   -0.0148 C   0  0
   -1.0739   -0.6645    0.0084 C   0  0
    1.3927   -0.6956   -0.0014 C   0  0
    3.8775   -0.7359   -0.0217 C   0  0
   -4.7772   -1.3177    0.2015 C   0  0
   -2.3257   -1.3692    0.0510 C   0  0
   -6.0650   -0.5441    0.3455 C   0  0
   -3.5511   -0.6419    0.0504 C   0  0
   -6.0281    0.7801   -0.4195 C   0  0
    1.3587   -3.5486   -0.0074 C   0  0
    3.8295   -3.5811   -0.0514 C   0  0
    0.1269   -2.8288    0.0205 C   0  0
    2.6060   -2.8531   -0.0260 C   0  0
    5.0554   -2.8770   -0.0629 C   0  0
   -3.6004   -3.4348    0.2600 C   0  0
   -1.1047   -3.5345    0.0646 C   0  0
   -4.7814   -2.7096    0.3158 C   0  0
   -2.3529   -2.7954    0.1200 C   0  0
    5.0710   -1.5016   -0.0466 C   0  0
    0.1140   -5.6516    0.0113 C   0  0
    2.5901   -5.6840   -0.0415 C   0  0
    1.3576   -4.9752   -0.0128 C   0  0
    3.7877   -5.0130   -0.0628 C   0  0
   -1.0709   -4.9523    0.0523 C   0  0
    4.8785    5.5108    0.0738 H   0  0
    6.0631    0.9167    0.0041 H   0  0
    6.0374   -1.0015   -0.0575 H   0  0
    5.9878   -3.4383   -0.0841 H   0  0
    2.5685   -6.7768   -0.0477 H   0  0
    0.1043   -6.7427   -0.0006 H   0  0
   -2.0032   -5.5136    0.0654 H   0  0
   -3.6526   -4.5191    0.3419 H   0  0
    0.2853    6.8117    0.0633 H   0  0
   -1.8560    5.6374    0.0011 H   0  0
   -3.5284    4.6980   -0.2166 H   0  0
   -5.6435    3.4676   -0.3583 H   0  0
   -5.7323   -3.2280    0.4524 H   0  0
   -6.8699    1.3986   -0.0627 H   0  0
   -6.8995   -1.1336   -0.0601 H   0  0
   -6.2177    0.4477   -1.8140 O   0  0
   -5.7403    1.1137   -2.3366 H   0  0
   -6.3914   -0.3357    1.7337 O   0  0
   -5.5863   -0.0108    2.1745 H   0  0
    2.7440    6.7819    0.0799 H   0  0
    6.2922    3.5424    0.0436 O   0  0
    7.0396    2.9202    0.0368 H   0  0
    5.0031   -5.6499   -0.0916 O   0  0
    4.8457   -6.6095   -0.0954 H   0  0
M  END

> <TOTAL ENERGY>
BIOVIA, TYPE=DOUBLE, VERSION=1                                                  
 -2140.45835156

> <BINDING ENERGY>
BIOVIA, TYPE=DOUBLE, VERSION=1                                                  
   -16.42084258

> <HOMO ENERGY>
BIOVIA, TYPE=DOUBLE, VERSION=1                                                  
    -0.17481663

> <LUMO ENERGY>
BIOVIA, TYPE=DOUBLE, VERSION=1                                                  
    -0.10526248

> <LUMO-HOMO ENERGY>
BIOVIA, TYPE=DOUBLE, VERSION=1                                                  
     0.06955415

> <OPERATION STATUS>
BIOVIA, TYPE=STATUS, VERSION=1                                                  
SUCCESS

$$$$
