Materials Studio SDF calculation
TCVAMP81A 

 74  0  0  0  0  0              1 V2000
    1.3755    0.4232   -0.0125 C   0  0
    0.1436    2.5526   -0.0125 C   0  0
    3.8355    0.4254   -0.0125 C   0  0
    2.6036    2.5547   -0.0125 C   0  0
    5.0636    2.5569   -0.0125 C   0  0
    0.1449    1.1323   -0.0125 C   0  0
    2.6049    1.1344   -0.0125 C   0  0
    1.3730    3.2638   -0.0125 C   0  0
    5.0649    1.1366   -0.0125 C   0  0
    3.8330    3.2659   -0.0125 C   0  0
   -3.5245    0.4232   -0.0125 C   0  0
   -4.7564    2.5526   -0.0125 C   0  0
   -1.0645    0.4254   -0.0125 C   0  0
   -2.2964    2.5547   -0.0125 C   0  0
   -4.7551    1.1323   -0.0125 C   0  0
   -2.2951    1.1344   -0.0125 C   0  0
   -3.5270    3.2638   -0.0125 C   0  0
   -1.0670    3.2659   -0.0125 C   0  0
   -1.0564    4.7526   -0.0125 C   0  0
    1.4036    4.7547   -0.0125 C   0  0
    3.8636    4.7569   -0.0125 C   0  0
    0.1730    5.4638   -0.0125 C   0  0
    2.6330    5.4659   -0.0125 C   0  0
    2.7330    6.8627   -0.0125 C   0  0
    0.1755   -1.7768   -0.0125 C   0  0
    2.6355   -1.7746   -0.0125 C   0  0
   -1.0551   -1.0677   -0.0125 C   0  0
    1.4049   -1.0656   -0.0125 C   0  0
    3.8649   -1.0634   -0.0125 C   0  0
   -4.7245   -1.7768   -0.0125 C   0  0
   -2.2645   -1.7746   -0.0125 C   0  0
   -5.9551   -1.0677   -0.0125 C   0  0
   -3.4951   -1.0656   -0.0125 C   0  0
   -5.9551    0.3323   -0.0125 C   0  0
    1.2680   -4.1521   -0.0125 C   0  0
    3.7280   -4.1499   -0.0125 C   0  0
    0.0374   -3.4430   -0.0125 C   0  0
    2.4974   -3.4409   -0.0125 C   0  0
    4.9574   -3.4387   -0.0125 C   0  0
   -3.6320   -4.1521   -0.0125 C   0  0
   -1.1720   -4.1499   -0.0125 C   0  0
   -4.8626   -3.4430   -0.0125 C   0  0
   -2.4026   -3.4409   -0.0125 C   0  0
    5.0904   -2.0172   -0.0126 C   0  0
   -0.0418   -6.4139    0.0743 C   0  0
    2.4182   -6.4117    0.0743 C   0  0
    1.1876   -5.7027    0.0743 C   0  0
    3.6476   -5.7005    0.0743 C   0  0
   -1.2524   -5.7005    0.0743 C   0  0
    1.7626    7.8258   -0.0230 O   0  0
    3.8620    7.7908   -0.0220 O   0  0
    3.4945    8.8347   -0.0330 H   0  0
    4.5828    5.3661   -0.0187 H   0  0
    6.0649    1.1366   -0.0125 H   0  0
    6.0859    3.2565   -0.0194 O   0  0
    6.9126    2.6421   -0.0273 H   0  0
    5.9032   -1.6111   -0.0167 H   0  0
    5.6385   -4.0289   -0.0070 H   0  0
    4.7253   -6.4033    0.0812 O   0  0
    2.3806   -7.5793    0.0851 O   0  0
   -0.0699   -7.2816    0.0822 H   0  0
   -1.8739   -6.3493    0.0797 H   0  0
   -3.6601   -5.0198   -0.0047 H   0  0
    0.2021    6.3950   -0.0222 H   0  0
   -1.7365    5.4062   -0.0199 H   0  0
   -3.4979    4.1950   -0.0222 H   0  0
   -5.6554    2.6129   -0.0143 H   0  0
   -5.6776   -3.8856   -0.0093 H   0  0
   -6.8351    0.9923   -0.0201 H   0  0
   -6.7701   -1.5103   -0.0093 H   0  0
   -6.2945   -1.1511    1.5186 O   0  0
   -6.4543    0.2281   -1.4270 O   0  0
   -5.4945   -0.6511    1.5186 H   0  0
   -6.2009    1.3924   -1.4565 H   0  0
M  END

> <TOTAL ENERGY>
BIOVIA, TYPE=DOUBLE, VERSION=1                                                  
 -2385.20106712

> <BINDING ENERGY>
BIOVIA, TYPE=DOUBLE, VERSION=1                                                  
   -19.02561391

> <HOMO ENERGY>
BIOVIA, TYPE=DOUBLE, VERSION=1                                                  
    -0.20275839

> <LUMO ENERGY>
BIOVIA, TYPE=DOUBLE, VERSION=1                                                  
    -0.15869685

> <LUMO-HOMO ENERGY>
BIOVIA, TYPE=DOUBLE, VERSION=1                                                  
     0.04406154

> <OPERATION STATUS>
BIOVIA, TYPE=STATUS, VERSION=1                                                  
SUCCESS

$$$$
