Materials Studio SDF calculation
TCVAMP81A 

 67  0  0  0  0  0              1 V2000
    1.1216    0.5868   -0.0144 C   0  0
   -0.0925    2.7459   -0.0275 C   0  0
    3.5954    0.5800   -0.0115 C   0  0
    2.3832    2.7162   -0.0245 C   0  0
    4.8306    2.6928   -0.0215 C   0  0
   -0.1042    1.3116   -0.0197 C   0  0
    2.3698    1.2955   -0.0168 C   0  0
    1.1566    3.4427   -0.0298 C   0  0
    4.8414    1.2917   -0.0139 C   0  0
    3.6333    3.4207   -0.0268 C   0  0
   -3.8171    0.6388   -0.0203 C   0  0
   -5.0159    2.7693   -0.0333 C   0  0
   -1.3434    0.6100   -0.0173 C   0  0
   -2.5724    2.7696   -0.0305 C   0  0
   -5.0504    1.3536   -0.0257 C   0  0
   -2.5756    1.3462   -0.0228 C   0  0
   -3.8203    3.4498   -0.0356 C   0  0
   -1.3116    3.4808   -0.0329 C   0  0
   -1.2460    4.8976   -0.0405 C   0  0
    1.1842    4.8680   -0.0375 C   0  0
    3.6207    4.8524   -0.0346 C   0  0
   -0.0421    5.5700   -0.0428 C   0  0
    2.4426    5.5474   -0.0398 C   0  0
    2.4428    6.6390   -0.0457 H   0  0
   -0.1288   -1.5404   -0.0042 C   0  0
    2.3517   -1.5607   -0.0013 C   0  0
   -1.3546   -0.8156   -0.0096 C   0  0
    1.1118   -0.8367   -0.0066 C   0  0
    3.5896   -0.8460   -0.0037 C   0  0
   -5.0810   -1.4779   -0.0103 C   0  0
   -2.6062   -1.5236   -0.0072 C   0  0
   -6.2962   -0.7342   -0.0157 C   0  0
   -3.8316   -0.7889   -0.0126 C   0  0
   -6.2816    0.6362   -0.0232 C   0  0
    1.0945   -3.7040    0.0089 C   0  0
    3.6060   -3.6519    0.0116 C   0  0
   -0.1389   -2.9766    0.0036 C   0  0
    2.3582   -2.9827    0.0065 C   0  0
    4.8025   -2.9627    0.0092 C   0  0
   -3.8929   -3.5975    0.0026 C   0  0
   -1.3831   -3.6847    0.0060 C   0  0
   -5.0755   -2.8929   -0.0026 C   0  0
   -2.6330   -2.9433    0.0005 C   0  0
    4.8286   -1.5520    0.0016 C   0  0
   -0.1608   -5.7933    0.0188 C   0  0
    6.0567   -0.8194   -0.0010 C   0  0
    1.0508   -5.1092    0.0165 C   0  0
    6.0643    0.5478   -0.0084 C   0  0
   -1.3611   -5.0922    0.0136 C   0  0
    4.5774    5.3784   -0.0364 H   0  0
    3.6385   -4.7397    0.0175 H   0  0
    5.7816    3.2308   -0.0233 H   0  0
    1.9732   -5.6871    0.0207 H   0  0
    5.7485   -3.5078    0.0132 H   0  0
    7.0079    1.0968   -0.0103 H   0  0
    6.9949   -1.3777    0.0031 H   0  0
   -0.1686   -6.8839    0.0248 H   0  0
   -2.2926   -5.6542    0.0156 H   0  0
   -3.9389   -4.6847    0.0084 H   0  0
   -0.0256    6.6614   -0.0487 H   0  0
   -2.1638    5.4821   -0.0448 H   0  0
   -3.8433    4.5377   -0.0416 H   0  0
   -5.9602    3.3173   -0.0374 H   0  0
   -6.0303   -3.4225   -0.0008 H   0  0
   -7.2156    1.2013   -0.0273 H   0  0
   -7.2423   -1.2790   -0.0139 H   0  0
   -0.1609   -5.8432    0.8538 H   0  0
M  END

> <TOTAL ENERGY>
BIOVIA, TYPE=DOUBLE, VERSION=1                                                  
 -1839.10141894

> <BINDING ENERGY>
BIOVIA, TYPE=DOUBLE, VERSION=1                                                  
   -15.56643987

> <HOMO ENERGY>
BIOVIA, TYPE=DOUBLE, VERSION=1                                                  
    -0.16856668

> <LUMO ENERGY>
BIOVIA, TYPE=DOUBLE, VERSION=1                                                  
    -0.13099526

> <LUMO-HOMO ENERGY>
BIOVIA, TYPE=DOUBLE, VERSION=1                                                  
     0.03757142

> <OPERATION STATUS>
BIOVIA, TYPE=STATUS, VERSION=1                                                  
SUCCESS

$$$$
