Materials Studio SDF calculation
TCVAMP81A 

 70  0  0  0  0  0              1 V2000
    1.5902    0.6827    0.0050 C   0  0
    0.3777    2.8477    0.0131 C   0  0
    4.0749    0.6656    0.0017 C   0  0
    2.8555    2.8104    0.0298 C   0  0
    5.2990    2.7788    0.0348 C   0  0
    0.3637    1.4087    0.0065 C   0  0
    2.8452    1.3805    0.0112 C   0  0
    1.6287    3.5392    0.0331 C   0  0
    5.2876    1.4042    0.0132 C   0  0
    4.0929    3.5186    0.0429 C   0  0
   -3.3506    0.7508   -0.0597 C   0  0
   -4.5335    2.8634   -0.2025 C   0  0
   -0.8760    0.7122    0.0009 C   0  0
   -2.1017    2.8793   -0.0491 C   0  0
   -4.5579    1.4650   -0.1877 C   0  0
   -2.1092    1.4494   -0.0284 C   0  0
   -3.3346    3.5570   -0.1208 C   0  0
   -0.8339    3.5861   -0.0026 C   0  0
   -0.7687    5.0029    0.0269 C   0  0
    1.6589    4.9658    0.0537 C   0  0
    4.0893    4.9438    0.0638 C   0  0
    0.4329    5.6721    0.0568 C   0  0
    2.9125    5.6448    0.0704 C   0  0
    2.9145    6.7358    0.0868 H   0  0
    0.3300   -1.4400    0.0026 C   0  0
    2.8119   -1.4675   -0.0165 C   0  0
   -0.8935   -0.7158    0.0033 C   0  0
    1.5734   -0.7417   -0.0028 C   0  0
    4.0582   -0.7806   -0.0181 C   0  0
   -4.5960   -1.3813    0.1702 C   0  0
   -2.1441   -1.4240    0.0345 C   0  0
   -5.8899   -0.6178    0.3163 C   0  0
   -3.3717   -0.6994    0.0357 C   0  0
   -5.8509    0.7262   -0.4133 C   0  0
    1.5454   -3.5980   -0.0215 C   0  0
    4.0090   -3.6334   -0.0542 C   0  0
    0.3112   -2.8788    0.0047 C   0  0
    2.7891   -2.8971   -0.0321 C   0  0
    5.2327   -2.9215   -0.0583 C   0  0
   -3.4149   -3.4961    0.2085 C   0  0
   -0.9181   -3.5880    0.0369 C   0  0
   -4.5976   -2.7748    0.2651 C   0  0
   -2.1682   -2.8511    0.0879 C   0  0
    5.2532   -1.5468   -0.0389 C   0  0
    0.3010   -5.7034   -0.0204 C   0  0
    2.7809   -5.7315   -0.0604 C   0  0
    1.5430   -5.0251   -0.0342 C   0  0
    3.9735   -5.0581   -0.0705 C   0  0
   -0.8849   -5.0065    0.0164 C   0  0
    5.0482    5.4653    0.0743 H   0  0
    6.2412    0.8802    0.0076 H   0  0
    6.2487    3.3167    0.0448 H   0  0
    6.2185   -1.0449   -0.0428 H   0  0
    6.1692   -3.4815   -0.0758 H   0  0
    4.9202   -5.6010   -0.0893 H   0  0
    2.7579   -6.8224   -0.0719 H   0  0
    0.2953   -6.7944   -0.0398 H   0  0
   -1.8172   -5.5675    0.0199 H   0  0
   -3.4654   -4.5812    0.2753 H   0  0
    0.4530    6.7628    0.0812 H   0  0
   -1.6867    5.5868    0.0306 H   0  0
   -3.3618    4.6444   -0.1330 H   0  0
   -5.4757    3.4110   -0.2822 H   0  0
   -5.5486   -3.2969    0.3877 H   0  0
   -6.6958    1.3337   -0.0444 H   0  0
   -6.7145   -1.1998   -0.1196 H   0  0
   -6.0303    0.4240   -1.8152 O   0  0
   -5.6198    1.1455   -2.3206 H   0  0
   -6.2376   -0.4503    1.7042 O   0  0
   -5.4387   -0.1430    2.1679 H   0  0
M  END

> <TOTAL ENERGY>
BIOVIA, TYPE=DOUBLE, VERSION=1                                                  
 -1990.08191565

> <BINDING ENERGY>
BIOVIA, TYPE=DOUBLE, VERSION=1                                                  
   -16.04582689

> <HOMO ENERGY>
BIOVIA, TYPE=DOUBLE, VERSION=1                                                  
    -0.17802101

> <LUMO ENERGY>
BIOVIA, TYPE=DOUBLE, VERSION=1                                                  
    -0.10743092

> <LUMO-HOMO ENERGY>
BIOVIA, TYPE=DOUBLE, VERSION=1                                                  
     0.07059009

> <OPERATION STATUS>
BIOVIA, TYPE=STATUS, VERSION=1                                                  
SUCCESS

$$$$
