Materials Studio SDF calculation
TCVAMP81A 

 72  0  0  0  0  0              1 V2000
    1.2004    0.4539   -0.0644 C   0  0
   -0.0037    2.6263   -0.0702 C   0  0
    3.6838    0.4354   -0.0672 C   0  0
    2.4642    2.5812   -0.0415 C   0  0
    4.9154    2.5398   -0.0293 C   0  0
   -0.0209    1.1855   -0.0685 C   0  0
    2.4537    1.1516   -0.0598 C   0  0
    1.2465    3.3274   -0.0437 C   0  0
    4.9013    1.1674   -0.0524 C   0  0
    3.7065    3.2774   -0.0237 C   0  0
   -3.7381    0.5246   -0.1355 C   0  0
   -4.9170    2.6344   -0.3360 C   0  0
   -1.2619    0.4880   -0.0690 C   0  0
   -2.4876    2.6497   -0.1545 C   0  0
   -4.9448    1.2371   -0.2845 C   0  0
   -2.4965    1.2225   -0.1117 C   0  0
   -3.7174    3.3279   -0.2587 C   0  0
   -1.2196    3.3553   -0.0978 C   0  0
   -1.1559    4.7666   -0.0656 C   0  0
    1.2757    4.7616   -0.0218 C   0  0
    3.7163    4.6917    0.0001 C   0  0
    0.0376    5.4499   -0.0254 C   0  0
    2.5543    5.4386    0.0035 C   0  0
   -0.0605   -1.6669   -0.0483 C   0  0
    2.4209   -1.6978   -0.0786 C   0  0
   -1.2819   -0.9400   -0.0497 C   0  0
    1.1829   -0.9708   -0.0638 C   0  0
    3.6671   -1.0106   -0.0870 C   0  0
   -4.9855   -1.5988    0.1486 C   0  0
   -2.5335   -1.6469   -0.0032 C   0  0
   -6.2745   -0.8264    0.2883 C   0  0
   -3.7602   -0.9223   -0.0062 C   0  0
   -6.2388    0.4929   -0.4852 C   0  0
    1.1509   -3.8245   -0.0666 C   0  0
    3.6214   -3.8548   -0.1158 C   0  0
   -0.0807   -3.1053   -0.0348 C   0  0
    2.3971   -3.1284   -0.0888 C   0  0
    4.8468   -3.1498   -0.1287 C   0  0
   -3.8058   -3.7138    0.2105 C   0  0
   -1.3113   -3.8118    0.0101 C   0  0
   -4.9874   -2.9902    0.2679 C   0  0
   -2.5594   -3.0731    0.0670 C   0  0
    4.8623   -1.7747   -0.1111 C   0  0
   -0.0922   -5.9284   -0.0472 C   0  0
    2.3838   -5.9588   -0.1054 C   0  0
    1.1509   -5.2510   -0.0726 C   0  0
    3.5813   -5.2870   -0.1284 C   0  0
   -1.2773   -5.2297   -0.0045 C   0  0
    4.6794    5.1988    0.0146 H   0  0
    5.8524    0.6398   -0.0544 H   0  0
    5.8275   -1.2733   -0.1198 H   0  0
    5.7795   -3.7102   -0.1496 H   0  0
    2.3629   -7.0513   -0.1133 H   0  0
   -0.1014   -7.0192   -0.0651 H   0  0
   -2.2092   -5.7911    0.0061 H   0  0
   -3.8565   -4.7979    0.2940 H   0  0
    0.0445    6.5348    0.0021 H   0  0
   -2.0739    5.3503   -0.0642 H   0  0
   -3.7424    4.4146   -0.2978 H   0  0
   -5.8566    3.1821   -0.4401 H   0  0
   -5.9372   -3.5096    0.4074 H   0  0
   -7.0817    1.1124   -0.1334 H   0  0
   -7.1069   -1.4193   -0.1162 H   0  0
   -6.6039   -0.6126    1.6743 O   0  0
   -5.8029   -0.2803    2.1160 H   0  0
    2.6705    6.9211    0.0359 C   0  0
    1.7594    7.7376    0.0572 O   0  0
    3.9769    7.3479    0.0392 O   0  0
    3.9078    8.3231    0.0607 H   0  0
    5.8631    3.0801   -0.0145 H   0  0
    4.7966   -5.9214   -0.1614 O   0  0
    4.6432   -6.8812   -0.1668 H   0  0
M  END

> <TOTAL ENERGY>
BIOVIA, TYPE=DOUBLE, VERSION=1                                                  
 -2177.93178218

> <BINDING ENERGY>
BIOVIA, TYPE=DOUBLE, VERSION=1                                                  
   -16.60144433

> <HOMO ENERGY>
BIOVIA, TYPE=DOUBLE, VERSION=1                                                  
    -0.14767777

> <LUMO ENERGY>
BIOVIA, TYPE=DOUBLE, VERSION=1                                                  
    -0.10844344

> <LUMO-HOMO ENERGY>
BIOVIA, TYPE=DOUBLE, VERSION=1                                                  
     0.03923433

> <OPERATION STATUS>
BIOVIA, TYPE=STATUS, VERSION=1                                                  
SUCCESS

$$$$
