Materials Studio SDF calculation
TCVAMP81A 

 70  0  0  0  0  0              1 V2000
    1.0292    0.4407   -0.0468 C   0  0
   -0.1799    2.6086   -0.0733 C   0  0
    3.5095    0.4242   -0.0449 C   0  0
    2.2857    2.5678   -0.0215 C   0  0
    4.7341    2.5309    0.0188 C   0  0
   -0.1929    1.1730   -0.0581 C   0  0
    2.2788    1.1399   -0.0414 C   0  0
    1.0671    3.3123   -0.0397 C   0  0
    4.7243    1.1595   -0.0131 C   0  0
    3.5244    3.2659    0.0159 C   0  0
   -3.9055    0.5000   -0.0397 C   0  0
   -5.0997    2.6285   -0.1454 C   0  0
   -1.4325    0.4738   -0.0444 C   0  0
   -2.6598    2.6256   -0.1232 C   0  0
   -5.1366    1.2163   -0.0694 C   0  0
   -2.6646    1.2062   -0.0717 C   0  0
   -3.9042    3.3059   -0.1704 C   0  0
   -1.4014    3.3340   -0.1091 C   0  0
   -1.3357    4.7473   -0.1149 C   0  0
    1.0946    4.7445   -0.0238 C   0  0
    3.5320    4.6762    0.0564 C   0  0
   -0.1433    5.4297   -0.0714 C   0  0
    2.3668    5.4225    0.0423 C   0  0
   -0.2288   -1.6786    0.0045 C   0  0
    2.2493   -1.7079   -0.0464 C   0  0
   -1.4503   -0.9514    0.0016 C   0  0
    1.0132   -0.9809   -0.0303 C   0  0
    3.4935   -1.0191   -0.0699 C   0  0
   -5.1698   -1.6107    0.0801 C   0  0
   -2.6976   -1.6583    0.0472 C   0  0
   -6.3811   -0.8666    0.0499 C   0  0
   -3.9223   -0.9241    0.0303 C   0  0
   -6.3653    0.5029   -0.0193 C   0  0
    0.9804   -3.8314    0.0184 C   0  0
    3.4490   -3.8640   -0.0621 C   0  0
   -0.2507   -3.1114    0.0428 C   0  0
    2.2252   -3.1368   -0.0334 C   0  0
    4.6724   -3.1588   -0.1061 C   0  0
   -3.9862   -3.7284    0.1718 C   0  0
   -1.4846   -3.8170    0.1007 C   0  0
   -5.1657   -3.0233    0.1573 C   0  0
   -2.7254   -3.0788    0.1096 C   0  0
    4.6877   -1.7846   -0.1053 C   0  0
   -0.2612   -5.9302    0.1144 C   0  0
    2.2083   -5.9621    0.0122 C   0  0
    0.9798   -5.2543    0.0483 C   0  0
    3.4077   -5.2923   -0.0392 C   0  0
   -1.4466   -5.2350    0.1408 C   0  0
    4.4968    5.1831    0.1005 H   0  0
    5.6789    0.6322   -0.0054 H   0  0
    5.6552   -1.2819   -0.1361 H   0  0
    5.6072   -3.7218   -0.1351 H   0  0
    2.1878   -7.0580    0.0320 H   0  0
   -0.2668   -7.0241    0.1420 H   0  0
   -2.3775   -5.8018    0.1895 H   0  0
   -4.0324   -4.8165    0.2312 H   0  0
   -0.1418    6.5176   -0.0658 H   0  0
   -2.2551    5.3341   -0.1483 H   0  0
   -3.9254    4.3949   -0.2253 H   0  0
   -6.0447    3.1796   -0.1803 H   0  0
   -6.1233   -3.5509    0.2042 H   0  0
   -7.3004    1.0714   -0.0428 H   0  0
   -7.3295   -1.4117    0.0891 H   0  0
    5.6813    3.0773    0.0501 H   0  0
    4.6209   -5.9347   -0.0723 O   0  0
    4.4487   -6.9000   -0.0510 H   0  0
    2.4735    6.9031    0.1073 C   0  0
    1.5612    7.7198    0.1181 O   0  0
    3.7771    7.3384    0.1642 O   0  0
    3.6864    8.3199    0.2052 H   0  0
M  END

> <TOTAL ENERGY>
BIOVIA, TYPE=DOUBLE, VERSION=1                                                  
 -2102.19727922

> <BINDING ENERGY>
BIOVIA, TYPE=DOUBLE, VERSION=1                                                  
   -16.36734094

> <HOMO ENERGY>
BIOVIA, TYPE=DOUBLE, VERSION=1                                                  
    -0.17884147

> <LUMO ENERGY>
BIOVIA, TYPE=DOUBLE, VERSION=1                                                  
    -0.10819964

> <LUMO-HOMO ENERGY>
BIOVIA, TYPE=DOUBLE, VERSION=1                                                  
     0.07064183

> <OPERATION STATUS>
BIOVIA, TYPE=STATUS, VERSION=1                                                  
SUCCESS

$$$$
