Materials Studio SDF calculation
TCVAMP81A 

 69  0  0  0  0  0              1 V2000
    1.3639    0.7699    0.0457 C   0  0
    0.1550    2.9337    0.0230 C   0  0
    3.8491    0.7494    0.0606 C   0  0
    2.6324    2.8952    0.0383 C   0  0
    5.0771    2.8607    0.0479 C   0  0
    0.1395    1.4977    0.0318 C   0  0
    2.6203    1.4658    0.0487 C   0  0
    1.4065    3.6249    0.0258 C   0  0
    5.0640    1.4861    0.0574 C   0  0
    3.8714    3.6020    0.0404 C   0  0
   -3.5839    0.8344   -0.0117 C   0  0
   -4.7631    2.9559   -0.0107 C   0  0
   -1.1059    0.8020    0.0220 C   0  0
   -2.3251    2.9651    0.0093 C   0  0
   -4.7993    1.5591   -0.0337 C   0  0
   -2.3358    1.5380    0.0054 C   0  0
   -3.5609    3.6453    0.0151 C   0  0
   -1.0583    3.6719    0.0100 C   0  0
   -0.9915    5.0893   -0.0104 C   0  0
    1.4372    5.0512    0.0139 C   0  0
    3.8684    5.0268    0.0339 C   0  0
    0.2110    5.7580   -0.0067 C   0  0
    2.6913    5.7284    0.0208 C   0  0
    0.0983   -1.3503    0.0512 C   0  0
    2.5802   -1.3825    0.0734 C   0  0
   -1.1246   -0.6239    0.0310 C   0  0
    1.3446   -0.6546    0.0564 C   0  0
    3.8291   -0.6959    0.0756 C   0  0
   -4.8649   -1.2930   -0.0084 C   0  0
   -2.3799   -1.3282    0.0239 C   0  0
   -6.0568   -0.6004   -0.0395 C   0  0
   -3.5928   -0.5997    0.0006 C   0  0
   -6.1411    0.8768   -0.1335 C   0  0
    1.3052   -3.5061    0.0848 C   0  0
    3.7769   -3.5418    0.1075 C   0  0
    0.0771   -2.7844    0.0661 C   0  0
    2.5540   -2.8124    0.0886 C   0  0
    5.0038   -2.8381    0.1108 C   0  0
   -3.6682   -3.4215    0.0446 C   0  0
   -1.1654   -3.4898    0.0631 C   0  0
   -4.8428   -2.7276    0.0186 C   0  0
   -2.3987   -2.7617    0.0448 C   0  0
    5.0216   -1.4632    0.0937 C   0  0
    0.0554   -5.6113    0.0950 C   0  0
    2.5317   -5.6426    0.1178 C   0  0
    1.3037   -4.9340    0.0994 C   0  0
    3.7333   -4.9717    0.1231 C   0  0
   -1.1267   -4.9153    0.0781 C   0  0
    4.8273    5.5478    0.0391 H   0  0
    6.0175    0.9614    0.0622 H   0  0
    5.9872   -0.9624    0.0972 H   0  0
    5.9356   -3.4003    0.1263 H   0  0
    2.5114   -6.7354    0.1293 H   0  0
    0.0474   -6.7024    0.1052 H   0  0
   -2.0574   -5.4782    0.0749 H   0  0
   -3.7092   -4.5083    0.0675 H   0  0
    0.2317    6.8490   -0.0235 H   0  0
   -1.9084    5.6745   -0.0328 H   0  0
   -3.5868    4.7325    0.0375 H   0  0
   -5.7058    3.5050   -0.0306 H   0  0
   -5.7974   -3.2565    0.0192 H   0  0
   -6.8165    1.2756    0.6441 H   0  0
   -7.0012   -1.1477   -0.0521 H   0  0
   -6.8404    1.2649   -1.3648 O   0  0
   -6.3010    0.9129   -2.0967 H   0  0
    2.6941    6.8194    0.0151 H   0  0
    6.0274    3.3978    0.0468 H   0  0
    4.9443   -5.6141    0.1424 O   0  0
    4.7838   -6.5730    0.1502 H   0  0
M  END

> <TOTAL ENERGY>
BIOVIA, TYPE=DOUBLE, VERSION=1                                                  
 -1989.46093322

> <BINDING ENERGY>
BIOVIA, TYPE=DOUBLE, VERSION=1                                                  
   -15.92453392

> <HOMO ENERGY>
BIOVIA, TYPE=DOUBLE, VERSION=1                                                  
    -0.15062868

> <LUMO ENERGY>
BIOVIA, TYPE=DOUBLE, VERSION=1                                                  
    -0.13392610

> <LUMO-HOMO ENERGY>
BIOVIA, TYPE=DOUBLE, VERSION=1                                                  
     0.01670258

> <OPERATION STATUS>
BIOVIA, TYPE=STATUS, VERSION=1                                                  
SUCCESS

$$$$
