Materials Studio SDF calculation
TCVAMP81A 

 73  0  0  0  0  0              1 V2000
    1.1224    0.3881    0.0454 C   0  0
   -0.0784    2.5568    0.0290 C   0  0
    3.6053    0.3700    0.0613 C   0  0
    2.3914    2.5136    0.0463 C   0  0
    4.8417    2.4730    0.0555 C   0  0
   -0.0978    1.1193    0.0315 C   0  0
    2.3747    1.0849    0.0512 C   0  0
    1.1726    3.2593    0.0395 C   0  0
    4.8221    1.0967    0.0627 C   0  0
    3.6284    3.2195    0.0480 C   0  0
   -3.8232    0.4494   -0.0208 C   0  0
   -5.0021    2.5712   -0.0446 C   0  0
   -1.3435    0.4210    0.0191 C   0  0
   -2.5646    2.5788   -0.0000 C   0  0
   -5.0380    1.1744   -0.0514 C   0  0
   -2.5753    1.1532   -0.0012 C   0  0
   -3.7995    3.2603   -0.0148 C   0  0
   -1.2970    3.2842    0.0161 C   0  0
   -1.2328    4.6963    0.0151 C   0  0
    1.1995    4.6935    0.0433 C   0  0
    3.6421    4.6308    0.0443 C   0  0
   -0.0398    5.3807    0.0300 C   0  0
    2.4752    5.3723    0.0474 C   0  0
   -0.1413   -1.7324    0.0465 C   0  0
    2.3396   -1.7620    0.0674 C   0  0
   -1.3631   -1.0053    0.0275 C   0  0
    1.1036   -1.0362    0.0529 C   0  0
    3.5883   -1.0750    0.0702 C   0  0
   -5.1027   -1.6790   -0.0200 C   0  0
   -2.6179   -1.7110    0.0187 C   0  0
   -6.2945   -0.9868   -0.0530 C   0  0
   -3.8314   -0.9844   -0.0065 C   0  0
   -6.3807    0.4909   -0.1417 C   0  0
    1.0671   -3.8865    0.0770 C   0  0
    3.5392   -3.9203    0.0954 C   0  0
   -0.1616   -3.1662    0.0598 C   0  0
    2.3154   -3.1920    0.0796 C   0  0
    4.7664   -3.2162    0.0963 C   0  0
   -3.9051   -3.8062    0.0323 C   0  0
   -1.4033   -3.8727    0.0564 C   0  0
   -5.0804   -3.1136    0.0046 C   0  0
   -2.6365   -3.1449    0.0365 C   0  0
    4.7820   -1.8414    0.0831 C   0  0
   -0.1808   -5.9931    0.0897 C   0  0
    2.2951   -6.0215    0.1085 C   0  0
    1.0666   -5.3142    0.0920 C   0  0
    3.4967   -5.3501    0.1107 C   0  0
   -1.3637   -5.2984    0.0725 C   0  0
    4.6031    5.1373    0.0455 H   0  0
    5.7749    0.5678    0.0693 H   0  0
    5.7489   -1.3426    0.0852 H   0  0
    5.6987   -3.7777    0.1080 H   0  0
    2.2740   -7.1141    0.1208 H   0  0
   -0.1875   -7.0841    0.1007 H   0  0
   -2.2935   -5.8627    0.0697 H   0  0
   -3.9448   -4.8932    0.0514 H   0  0
   -0.0337    6.4660    0.0376 H   0  0
   -2.1506    5.2800    0.0034 H   0  0
   -3.8258    4.3475   -0.0067 H   0  0
   -5.9443    3.1202   -0.0783 H   0  0
   -6.0343   -3.6435    0.0006 H   0  0
   -7.0453    0.8848    0.6479 H   0  0
   -7.2387   -1.5342   -0.0690 H   0  0
   -7.0951    0.8833   -1.3595 O   0  0
   -6.5680    0.5330   -2.1009 H   0  0
    2.5871    6.8548    0.0745 C   0  0
    1.6810    7.6651    0.2219 O   0  0
    3.8815    7.2884   -0.0820 O   0  0
    3.8139    8.2626   -0.0279 H   0  0
    6.0043    3.1955    0.0557 O   0  0
    6.7546    2.5772    0.0603 H   0  0
    4.7089   -5.9906    0.1269 O   0  0
    4.5507   -6.9497    0.1355 H   0  0
M  END

> <TOTAL ENERGY>
BIOVIA, TYPE=DOUBLE, VERSION=1                                                  
 -2253.11776925

> <BINDING ENERGY>
BIOVIA, TYPE=DOUBLE, VERSION=1                                                  
   -16.78672128

> <HOMO ENERGY>
BIOVIA, TYPE=DOUBLE, VERSION=1                                                  
    -0.15309590

> <LUMO ENERGY>
BIOVIA, TYPE=DOUBLE, VERSION=1                                                  
    -0.13644084

> <LUMO-HOMO ENERGY>
BIOVIA, TYPE=DOUBLE, VERSION=1                                                  
     0.01665505

> <OPERATION STATUS>
BIOVIA, TYPE=STATUS, VERSION=1                                                  
SUCCESS

$$$$
