Materials Studio SDF calculation
TCVAMP81A 

 70  0  0  0  0  0              1 V2000
    1.5503    0.5742    0.0273 C   0  0
    0.3443    2.7376   -0.0074 C   0  0
    4.0393    0.5500    0.0377 C   0  0
    2.8236    2.6896   -0.1145 C   0  0
    5.2678    2.6505   -0.1697 C   0  0
    0.3279    1.2979    0.0347 C   0  0
    2.8106    1.2656   -0.0124 C   0  0
    1.5969    3.4193   -0.1216 C   0  0
    5.2535    1.2808   -0.0403 C   0  0
    4.0634    3.3903   -0.2084 C   0  0
   -3.3917    0.6039    0.1566 C   0  0
   -4.6713    2.7875    0.2914 C   0  0
   -0.9229    0.5988    0.0629 C   0  0
   -2.1442    2.7706    0.2031 C   0  0
   -4.6559    1.2747    0.3239 C   0  0
   -2.1557    1.3117    0.1557 C   0  0
   -3.3325    3.4334    0.3432 C   0  0
   -0.8639    3.4770    0.0444 C   0  0
   -0.7942    4.8841   -0.0855 C   0  0
    1.6317    4.8414   -0.2367 C   0  0
    4.0622    4.8105   -0.3343 C   0  0
    0.4080    5.5461   -0.2334 C   0  0
    2.8869    5.5123   -0.3543 C   0  0
    2.8911    6.5993   -0.4514 H   0  0
    0.2994   -1.5525    0.0079 C   0  0
    2.7736   -1.5793    0.1265 C   0  0
   -0.9270   -0.8299   -0.0005 C   0  0
    1.5384   -0.8544    0.0553 C   0  0
    4.0209   -0.8935    0.1514 C   0  0
   -4.6161   -1.4701   -0.3847 C   0  0
   -2.1651   -1.5323   -0.1222 C   0  0
   -5.8202   -0.7172   -0.4548 C   0  0
   -3.3903   -0.8044   -0.0974 C   0  0
   -5.8386    0.6077   -0.1102 C   0  0
    1.5077   -3.7075    0.0960 C   0  0
    3.9619   -3.7436    0.3096 C   0  0
    0.2807   -2.9867   -0.0178 C   0  0
    2.7475   -3.0074    0.1817 C   0  0
    5.1830   -3.0305    0.3729 C   0  0
   -3.4181   -3.5801   -0.5603 C   0  0
   -0.9467   -3.6921   -0.1540 C   0  0
   -4.5896   -2.8596   -0.6410 C   0  0
   -2.1802   -2.9516   -0.2823 C   0  0
    5.2098   -1.6570    0.2828 C   0  0
    0.2615   -5.8099    0.0094 C   0  0
    2.7302   -5.8396    0.2702 C   0  0
    1.5017   -5.1340    0.1242 C   0  0
    3.9207   -5.1663    0.3664 C   0  0
   -0.9150   -5.1132   -0.1345 C   0  0
    5.0217    5.3257   -0.4140 H   0  0
    6.2058    0.7547   -0.0151 H   0  0
    6.2187    3.1827   -0.2397 H   0  0
    6.1745   -1.1560    0.3290 H   0  0
    6.1147   -3.5879    0.4849 H   0  0
    4.8604   -5.7097    0.4803 H   0  0
    2.7038   -6.9298    0.3084 H   0  0
    0.2516   -6.9005    0.0433 H   0  0
   -1.8467   -5.6710   -0.2025 H   0  0
   -3.4532   -4.6534   -0.7377 H   0  0
    0.4264    6.6322   -0.3427 H   0  0
   -1.7090    5.4731   -0.0885 H   0  0
   -3.3662    4.5212    0.3687 H   0  0
   -5.3087    3.1602    1.1024 H   0  0
   -5.5267   -3.3641   -0.8832 H   0  0
   -6.7572    1.1894   -0.1853 H   0  0
   -6.7377   -1.2177   -0.7683 H   0  0
   -5.2490    0.8772    2.2015 O   0  0
   -6.0509    1.3967    2.4320 H   0  0
   -5.3375    3.2823   -0.9125 O   0  0
   -4.7902    2.9926   -1.6669 H   0  0
M  END

> <TOTAL ENERGY>
BIOVIA, TYPE=DOUBLE, VERSION=1                                                  
 -1990.03425355

> <BINDING ENERGY>
BIOVIA, TYPE=DOUBLE, VERSION=1                                                  
   -15.99816480

> <HOMO ENERGY>
BIOVIA, TYPE=DOUBLE, VERSION=1                                                  
    -0.16738192

> <LUMO ENERGY>
BIOVIA, TYPE=DOUBLE, VERSION=1                                                  
    -0.12151332

> <LUMO-HOMO ENERGY>
BIOVIA, TYPE=DOUBLE, VERSION=1                                                  
     0.04586860

> <OPERATION STATUS>
BIOVIA, TYPE=STATUS, VERSION=1                                                  
SUCCESS

$$$$
