Materials Studio SDF calculation
TCVAMP81A 

 74  0  0  0  0  0              1 V2000
    1.3647    0.4391   -0.0455 C   0  0
    0.1610    2.6111   -0.0334 C   0  0
    3.8450    0.4216   -0.0703 C   0  0
    2.6260    2.5651    0.0047 C   0  0
    5.0744    2.5248    0.0137 C   0  0
    0.1443    1.1712   -0.0423 C   0  0
    2.6159    1.1378   -0.0422 C   0  0
    1.4088    3.3122    0.0139 C   0  0
    5.0609    1.1531   -0.0387 C   0  0
    3.8661    3.2603    0.0411 C   0  0
   -3.5679    0.5077   -0.1130 C   0  0
   -4.7471    2.6136   -0.3361 C   0  0
   -1.0946    0.4730   -0.0375 C   0  0
   -2.3201    2.6326   -0.1371 C   0  0
   -4.7725    1.2182   -0.2737 C   0  0
   -2.3284    1.2067   -0.0873 C   0  0
   -3.5486    3.3090   -0.2547 C   0  0
   -1.0551    3.3393   -0.0633 C   0  0
   -0.9914    4.7485   -0.0088 C   0  0
    1.4384    4.7446    0.0655 C   0  0
    3.8773    4.6712    0.1085 C   0  0
    0.2025    5.4311    0.0565 C   0  0
    2.7152    5.4193    0.1258 C   0  0
    0.1067   -1.6801    0.0025 C   0  0
    2.5846   -1.7112   -0.0732 C   0  0
   -1.1142   -0.9531   -0.0009 C   0  0
    1.3477   -0.9837   -0.0394 C   0  0
    3.8278   -1.0231   -0.1139 C   0  0
   -4.8145   -1.6102    0.1965 C   0  0
   -2.3636   -1.6597    0.0623 C   0  0
   -6.1023   -0.8317    0.3249 C   0  0
   -3.5898   -0.9363    0.0350 C   0  0
   -6.0640    0.4696   -0.4782 C   0  0
    1.3183   -3.8355    0.0077 C   0  0
    3.7859   -3.8660   -0.1132 C   0  0
    0.0875   -3.1168    0.0486 C   0  0
    2.5621   -3.1401   -0.0638 C   0  0
    5.0073   -3.1606   -0.1813 C   0  0
   -3.6341   -3.7194    0.3293 C   0  0
   -1.1412   -3.8223    0.1363 C   0  0
   -4.8172   -2.9964    0.3569 C   0  0
   -2.3875   -3.0824    0.1758 C   0  0
    5.0214   -1.7857   -0.1787 C   0  0
    0.0815   -5.9348    0.1279 C   0  0
    2.5502   -5.9668   -0.0113 C   0  0
    1.3200   -5.2594    0.0424 C   0  0
    3.7469   -5.2958   -0.0860 C   0  0
   -1.1047   -5.2374    0.1752 C   0  0
    4.8437    5.1754    0.1486 H   0  0
    6.0141    0.6236   -0.0484 H   0  0
    5.9867   -1.2814   -0.2313 H   0  0
    5.9411   -3.7226   -0.2321 H   0  0
    2.5311   -7.0624    0.0134 H   0  0
    0.0750   -7.0285    0.1534 H   0  0
   -2.0356   -5.8029    0.2345 H   0  0
   -3.6855   -4.8027    0.4439 H   0  0
    0.2031    6.5175    0.1052 H   0  0
   -1.9123    5.3344   -0.0070 H   0  0
   -3.5738    4.3981   -0.3026 H   0  0
   -5.6883    3.1599   -0.4509 H   0  0
   -5.7689   -3.5133    0.5068 H   0  0
   -6.9145    1.0964   -0.1460 H   0  0
   -6.9437   -1.4339   -0.0536 H   0  0
   -6.2293    0.0990   -1.8644 O   0  0
   -5.7675    0.7820   -2.3939 H   0  0
   -6.4122   -0.5751    1.7083 O   0  0
   -5.5941   -0.2153    2.1141 H   0  0
    2.8337    6.8981    0.2047 C   0  0
    1.9280    7.7211    0.2423 O   0  0
    4.1416    7.3222    0.2373 O   0  0
    4.0603    8.3038    0.2893 H   0  0
    6.0223    3.0677    0.0447 H   0  0
    4.9615   -5.9338   -0.1357 O   0  0
    4.7940   -6.8995   -0.1079 H   0  0
M  END

> <TOTAL ENERGY>
BIOVIA, TYPE=DOUBLE, VERSION=1                                                  
 -2253.73891917

> <BINDING ENERGY>
BIOVIA, TYPE=DOUBLE, VERSION=1                                                  
   -16.90818175

> <HOMO ENERGY>
BIOVIA, TYPE=DOUBLE, VERSION=1                                                  
    -0.18055611

> <LUMO ENERGY>
BIOVIA, TYPE=DOUBLE, VERSION=1                                                  
    -0.11490227

> <LUMO-HOMO ENERGY>
BIOVIA, TYPE=DOUBLE, VERSION=1                                                  
     0.06565384

> <OPERATION STATUS>
BIOVIA, TYPE=STATUS, VERSION=1                                                  
SUCCESS

$$$$
