Materials Studio SDF calculation
TCVAMP81A 

 67  0  0  0  0  0              1 V2000
    1.1701    0.7986    0.0000 C   0  0
   -0.0519    2.9571    0.0000 C   0  0
    3.6545    0.7877    0.0000 C   0  0
    2.4263    2.9297    0.0000 C   0  0
    4.8709    2.9060    0.0000 C   0  0
   -0.0592    1.5223    0.0000 C   0  0
    2.4219    1.4996    0.0000 C   0  0
    1.1966    3.6539    0.0000 C   0  0
    4.8650    1.5319    0.0000 C   0  0
    3.6614    3.6426    0.0000 C   0  0
   -3.7716    0.8451    0.0000 C   0  0
   -4.9733    2.9753    0.0000 C   0  0
   -1.2981    0.8225    0.0000 C   0  0
   -2.5302    2.9792    0.0000 C   0  0
   -5.0061    1.5582    0.0000 C   0  0
   -2.5310    1.5552    0.0000 C   0  0
   -3.7808    3.6576    0.0000 C   0  0
   -1.2718    3.6894    0.0000 C   0  0
   -1.2090    5.1099    0.0000 C   0  0
    1.2210    5.0803    0.0000 C   0  0
    3.6519    5.0669    0.0000 C   0  0
   -0.0103    5.7818    0.0000 C   0  0
    2.4708    5.7634    0.0000 C   0  0
    2.4688    6.8545    0.0000 H   0  0
   -0.0853   -1.3266    0.0000 C   0  0
    2.3962   -1.3473    0.0000 C   0  0
   -1.3110   -0.6051    0.0000 C   0  0
    1.1574   -0.6248    0.0000 C   0  0
    3.6417   -0.6571    0.0000 C   0  0
   -5.0326   -1.2737    0.0000 C   0  0
   -2.5578   -1.3153    0.0000 C   0  0
   -6.2469   -0.5321    0.0000 C   0  0
   -3.7846   -0.5828    0.0000 C   0  0
   -6.2345    0.8392    0.0000 C   0  0
    1.1319   -3.4794    0.0000 C   0  0
    3.5963   -3.5116    0.0000 C   0  0
   -0.1037   -2.7613    0.0000 C   0  0
    2.3750   -2.7770    0.0000 C   0  0
    4.8196   -2.7969    0.0000 C   0  0
   -3.8451   -3.3946    0.0000 C   0  0
   -1.3371   -3.4716    0.0000 C   0  0
   -5.0252   -2.6908    0.0000 C   0  0
   -2.5824   -2.7392    0.0000 C   0  0
    4.8384   -1.4227    0.0000 C   0  0
   -0.1120   -5.5865    0.0000 C   0  0
    2.3690   -5.6105    0.0000 C   0  0
    1.1315   -4.9062    0.0000 C   0  0
    3.5622   -4.9353    0.0000 C   0  0
   -1.2986   -4.8934    0.0000 C   0  0
    4.6085    5.5925    0.0000 H   0  0
    5.8201    1.0106    0.0000 H   0  0
    5.8184    3.4476    0.0000 H   0  0
    5.8032   -0.9196    0.0000 H   0  0
    5.7566   -3.3566    0.0000 H   0  0
    4.5092   -5.4778    0.0000 O   0  0
    2.3478   -6.7015    0.0000 H   0  0
   -0.1154   -6.6780    0.0000 H   0  0
   -2.2287   -5.4578    0.0000 H   0  0
   -3.8891   -4.4819    0.0000 H   0  0
    0.0062    6.8728    0.0000 H   0  0
   -2.1283    5.6912    0.0000 H   0  0
   -3.8051    4.7450    0.0000 H   0  0
   -5.9190    3.5203    0.0000 H   0  0
   -5.9800   -3.2197    0.0000 H   0  0
   -7.1697    1.4016    0.0000 H   0  0
   -7.1926   -1.0770    0.0000 H   0  0
    4.7092   -6.4778    0.0000 H   0  0
M  END

> <TOTAL ENERGY>
BIOVIA, TYPE=DOUBLE, VERSION=1                                                  
 -1913.73008435

> <BINDING ENERGY>
BIOVIA, TYPE=DOUBLE, VERSION=1                                                  
   -15.69408462

> <HOMO ENERGY>
BIOVIA, TYPE=DOUBLE, VERSION=1                                                  
    -0.17463231

> <LUMO ENERGY>
BIOVIA, TYPE=DOUBLE, VERSION=1                                                  
    -0.09663351

> <LUMO-HOMO ENERGY>
BIOVIA, TYPE=DOUBLE, VERSION=1                                                  
     0.07799880

> <OPERATION STATUS>
BIOVIA, TYPE=STATUS, VERSION=1                                                  
SUCCESS

$$$$
