Materials Studio SDF calculation
TCVAMP81A 

 67  0  0  0  0  0              1 V2000
    1.1921    0.5466   -0.0010 C   0  0
   -0.0262    2.7027    0.0115 C   0  0
    3.6653    0.5447   -0.0442 C   0  0
    2.4498    2.6783   -0.0078 C   0  0
    4.8974    2.6588   -0.0435 C   0  0
   -0.0394    1.2691    0.0129 C   0  0
    2.4383    1.2578   -0.0180 C   0  0
    1.2218    3.4019    0.0100 C   0  0
    4.9101    1.2585   -0.0598 C   0  0
    3.6983    3.3847   -0.0187 C   0  0
   -3.7563    0.5982   -0.0158 C   0  0
   -4.9422    2.7482   -0.1305 C   0  0
   -1.2769    0.5674    0.0286 C   0  0
   -2.5026    2.7254   -0.0154 C   0  0
   -4.9848    1.3261   -0.1059 C   0  0
   -2.5104    1.3055    0.0058 C   0  0
   -3.7499    3.4174   -0.0764 C   0  0
   -1.2458    3.4368    0.0113 C   0  0
   -1.1823    4.8551    0.0352 C   0  0
    1.2476    4.8267    0.0242 C   0  0
    3.6837    4.8158   -0.0041 C   0  0
    0.0199    5.5279    0.0431 C   0  0
    2.5041    5.5085    0.0184 C   0  0
    2.5020    6.6000    0.0304 H   0  0
   -0.0581   -1.5795    0.0250 C   0  0
    2.4241   -1.5962   -0.0306 C   0  0
   -1.2886   -0.8594    0.0473 C   0  0
    1.1854   -0.8728   -0.0022 C   0  0
    3.6615   -0.8804   -0.0559 C   0  0
   -5.0342   -1.4817    0.0016 C   0  0
   -2.5375   -1.5765    0.0765 C   0  0
   -6.2292   -0.7522   -0.1309 C   0  0
   -3.7862   -0.8256    0.0365 C   0  0
   -6.2103    0.6290   -0.1762 C   0  0
    1.1707   -3.7404    0.0191 C   0  0
    3.6802   -3.6858   -0.0757 C   0  0
   -0.0601   -3.0093    0.0374 C   0  0
    2.4332   -3.0188   -0.0314 C   0  0
    4.8761   -2.9950   -0.1055 C   0  0
   -3.8209   -3.7041    0.1388 C   0  0
   -1.3095   -3.7141    0.0888 C   0  0
   -5.0930   -2.9470    0.1017 C   0  0
   -2.5373   -2.9749    0.0962 C   0  0
    4.9011   -1.5850   -0.0896 C   0  0
   -0.0912   -5.8243    0.1447 C   0  0
    6.1280   -0.8505   -0.1084 C   0  0
    1.1227   -5.1436    0.0653 C   0  0
    6.1339    0.5162   -0.0916 C   0  0
   -1.2896   -5.1262    0.1644 C   0  0
    4.6394    5.3435   -0.0108 H   0  0
    3.7129   -4.7736   -0.0903 H   0  0
    5.8472    3.1987   -0.0530 H   0  0
    2.0433   -5.7235    0.0593 H   0  0
    5.8220   -3.5394   -0.1391 H   0  0
    7.0764    1.0669   -0.1040 H   0  0
    7.0666   -1.4075   -0.1348 H   0  0
   -0.0973   -6.9135    0.2055 H   0  0
   -2.2193   -5.6822    0.2682 H   0  0
   -3.8382   -4.7213   -0.2604 H   0  0
    0.0358    6.6192    0.0635 H   0  0
   -2.1003    5.4386    0.0526 H   0  0
   -3.7625    4.5050   -0.1003 H   0  0
   -5.8833    3.2979   -0.1946 H   0  0
   -5.9865   -3.4320   -0.3067 H   0  0
   -7.1392    1.1964   -0.2593 H   0  0
   -7.1767   -1.2930   -0.1755 H   0  0
   -4.6253   -3.5443    1.3437 O   0  0
M  END

> <TOTAL ENERGY>
BIOVIA, TYPE=DOUBLE, VERSION=1                                                  
 -1913.69002490

> <BINDING ENERGY>
BIOVIA, TYPE=DOUBLE, VERSION=1                                                  
   -15.65402517

> <HOMO ENERGY>
BIOVIA, TYPE=DOUBLE, VERSION=1                                                  
    -0.16866378

> <LUMO ENERGY>
BIOVIA, TYPE=DOUBLE, VERSION=1                                                  
    -0.11251088

> <LUMO-HOMO ENERGY>
BIOVIA, TYPE=DOUBLE, VERSION=1                                                  
     0.05615289

> <OPERATION STATUS>
BIOVIA, TYPE=STATUS, VERSION=1                                                  
SUCCESS

$$$$
