Materials Studio SDF calculation
TCVAMP81A 

 67  0  0  0  0  0              1 V2000
    1.0390    0.4133    0.0000 C   0  0
   -0.1751    2.5725    0.0000 C   0  0
    3.5127    0.4065    0.0000 C   0  0
    2.3005    2.5428    0.0000 C   0  0
    4.7480    2.5194    0.0000 C   0  0
   -0.1869    1.1382    0.0000 C   0  0
    2.2871    1.1221    0.0000 C   0  0
    1.0739    3.2693    0.0000 C   0  0
    4.7588    1.1182    0.0000 C   0  0
    3.5506    3.2473    0.0000 C   0  0
   -3.8998    0.4654    0.0000 C   0  0
   -5.0986    2.5959    0.0000 C   0  0
   -1.4260    0.4365    0.0000 C   0  0
   -2.6551    2.5962    0.0000 C   0  0
   -5.1330    1.1802    0.0000 C   0  0
   -2.6582    1.1728    0.0000 C   0  0
   -3.9030    3.2764    0.0000 C   0  0
   -1.3943    3.3074    0.0000 C   0  0
   -1.3287    4.7242    0.0000 C   0  0
    1.1015    4.6946    0.0000 C   0  0
    3.5380    4.6790    0.0000 C   0  0
   -0.1248    5.3966    0.0000 C   0  0
    2.3600    5.3740    0.0000 C   0  0
    2.3602    6.4656    0.0000 H   0  0
   -0.2114   -1.7139    0.0000 C   0  0
    2.2690   -1.7342    0.0000 C   0  0
   -1.4372   -0.9891    0.0000 C   0  0
    1.0291   -1.0102    0.0000 C   0  0
    3.5070   -1.0194    0.0000 C   0  0
   -5.1636   -1.6514    0.0000 C   0  0
   -2.6889   -1.6971    0.0000 C   0  0
   -6.3788   -0.9076    0.0000 C   0  0
   -3.9142   -0.9624    0.0000 C   0  0
   -6.3643    0.4628    0.0000 C   0  0
    1.0119   -3.8775    0.0000 C   0  0
    3.5233   -3.8255    0.0000 C   0  0
   -0.2216   -3.1501    0.0000 C   0  0
    2.2755   -3.1562    0.0000 C   0  0
    4.7198   -3.1362    0.0000 C   0  0
   -3.9756   -3.7710    0.0000 C   0  0
   -1.4658   -3.8582    0.0000 C   0  0
   -5.1582   -3.0663    0.0000 C   0  0
   -2.7156   -3.1168    0.0000 C   0  0
    4.7460   -1.7255    0.0000 C   0  0
   -0.2435   -5.9669    0.0000 C   0  0
    5.9740   -0.9929    0.0000 C   0  0
    0.9682   -5.2828    0.0000 C   0  0
    5.9817    0.3743    0.0000 C   0  0
   -1.4437   -5.2657    0.0000 C   0  0
    4.4948    5.2050    0.0000 O   0  0
    3.5558   -4.9132    0.0000 H   0  0
    5.6990    3.0574    0.0000 H   0  0
    1.8905   -5.8606    0.0000 H   0  0
    5.6659   -3.6813    0.0000 H   0  0
    6.9252    0.9233    0.0000 H   0  0
    6.9122   -1.5512    0.0000 H   0  0
   -0.2512   -7.0574    0.0000 H   0  0
   -2.3753   -5.8278    0.0000 H   0  0
   -4.0216   -4.8582    0.0000 H   0  0
   -0.1082    6.4881    0.0000 H   0  0
   -2.2465    5.3088    0.0000 H   0  0
   -3.9259    4.3643    0.0000 H   0  0
   -6.0429    3.1439    0.0000 H   0  0
   -6.1130   -3.5959    0.0000 H   0  0
   -7.2983    1.0279    0.0000 H   0  0
   -7.3249   -1.4524    0.0000 H   0  0
    5.2948    5.6050    0.0000 H   0  0
M  END

> <TOTAL ENERGY>
BIOVIA, TYPE=DOUBLE, VERSION=1                                                  
 -1913.74535925

> <BINDING ENERGY>
BIOVIA, TYPE=DOUBLE, VERSION=1                                                  
   -15.70935952

> <HOMO ENERGY>
BIOVIA, TYPE=DOUBLE, VERSION=1                                                  
    -0.16796466

> <LUMO ENERGY>
BIOVIA, TYPE=DOUBLE, VERSION=1                                                  
    -0.10643431

> <LUMO-HOMO ENERGY>
BIOVIA, TYPE=DOUBLE, VERSION=1                                                  
     0.06153034

> <OPERATION STATUS>
BIOVIA, TYPE=STATUS, VERSION=1                                                  
SUCCESS

$$$$
