Materials Studio SDF calculation
TCVAMP81A 

 69  0  0  0  0  0              1 V2000
    0.8681    0.2509    0.0000 C   0  0
   -0.3460    2.4100    0.0000 C   0  0
    3.3419    0.2441    0.0000 C   0  0
    2.1297    2.3804    0.0000 C   0  0
    4.5771    2.3569    0.0000 C   0  0
   -0.3577    0.9757    0.0000 C   0  0
    2.1162    0.9596    0.0000 C   0  0
    0.9030    3.1068    0.0000 C   0  0
    4.5879    0.9557    0.0000 C   0  0
    3.3797    3.0848    0.0000 C   0  0
   -4.0707    0.3029    0.0000 C   0  0
   -5.2695    2.4334    0.0000 C   0  0
   -1.5969    0.2741    0.0000 C   0  0
   -2.8259    2.4338    0.0000 C   0  0
   -5.3039    1.0177    0.0000 C   0  0
   -2.8291    1.0103    0.0000 C   0  0
   -4.0739    3.1139    0.0000 C   0  0
   -1.5651    3.1450    0.0000 C   0  0
   -1.4995    4.5617    0.0000 C   0  0
    0.9306    4.5322    0.0000 C   0  0
    3.3672    4.5165    0.0000 C   0  0
   -0.2956    5.2341    0.0000 C   0  0
    2.1891    5.2116    0.0000 C   0  0
    2.1893    6.3032    0.0000 H   0  0
   -0.3823   -1.8764    0.0000 C   0  0
    2.0981   -1.8966    0.0000 C   0  0
   -1.6081   -1.1516    0.0000 C   0  0
    0.8583   -1.1727    0.0000 C   0  0
    3.3361   -1.1819    0.0000 C   0  0
   -5.3345   -1.8139    0.0000 C   0  0
   -2.8598   -1.8595    0.0000 C   0  0
   -6.5497   -1.0700    0.0000 C   0  0
   -4.0851   -1.1248    0.0000 C   0  0
   -6.5352    0.3003    0.0000 C   0  0
    0.8410   -4.0400    0.0000 C   0  0
    3.3524   -3.9879    0.0000 C   0  0
   -0.3925   -3.3125    0.0000 C   0  0
    2.1046   -3.3186    0.0000 C   0  0
    4.5490   -3.2987    0.0000 C   0  0
   -4.1464   -3.9335    0.0000 C   0  0
   -1.6366   -4.0207    0.0000 C   0  0
   -5.3291   -3.2288    0.0000 C   0  0
   -2.8865   -3.2792    0.0000 C   0  0
    4.5751   -1.8880    0.0000 C   0  0
   -0.4144   -6.1293    0.0000 C   0  0
    5.8032   -1.1554    0.0000 C   0  0
    0.7973   -5.4452    0.0000 C   0  0
    5.8108    0.2118    0.0000 C   0  0
   -1.6146   -5.4282    0.0000 C   0  0
    4.3239    5.0425    0.0000 C   0  0
    3.3850   -5.0757    0.0000 H   0  0
    5.5281    2.8949    0.0000 H   0  0
    1.7196   -6.0231    0.0000 H   0  0
    5.4950   -3.8438    0.0000 H   0  0
    6.7544    0.7608    0.0000 H   0  0
    6.7413   -1.7137    0.0000 H   0  0
   -0.4221   -7.2199    0.0000 H   0  0
   -2.5462   -5.9902    0.0000 H   0  0
   -4.1925   -5.0207    0.0000 H   0  0
   -0.2791    6.3256    0.0000 H   0  0
   -2.4174    5.1463    0.0000 H   0  0
   -4.0968    4.2018    0.0000 H   0  0
   -6.2137    2.9814    0.0000 H   0  0
   -6.2839   -3.7584    0.0000 H   0  0
   -7.4691    0.8655    0.0000 H   0  0
   -7.4958   -1.6149    0.0000 H   0  0
    5.5239    4.8425    0.0000 O   0  0
    4.5239    6.2425    0.0000 O   0  0
    6.5239    5.2425    0.0000 H   0  0
M  END

> <TOTAL ENERGY>
BIOVIA, TYPE=DOUBLE, VERSION=1                                                  
 -2027.02555098

> <BINDING ENERGY>
BIOVIA, TYPE=DOUBLE, VERSION=1                                                  
   -16.19632281

> <HOMO ENERGY>
BIOVIA, TYPE=DOUBLE, VERSION=1                                                  
    -0.17427343

> <LUMO ENERGY>
BIOVIA, TYPE=DOUBLE, VERSION=1                                                  
    -0.11435470

> <LUMO-HOMO ENERGY>
BIOVIA, TYPE=DOUBLE, VERSION=1                                                  
     0.05991873

> <OPERATION STATUS>
BIOVIA, TYPE=STATUS, VERSION=1                                                  
SUCCESS

$$$$
