Materials Studio SDF calculation
TCVAMP81A 

 69  0  0  0  0  0              1 V2000
    1.0955    0.3516    0.0000 C   0  0
   -0.1330    2.5089    0.0000 C   0  0
    3.5795    0.3542    0.0000 C   0  0
    2.3364    2.4896    0.0000 C   0  0
    4.7889    2.4722    0.0000 C   0  0
   -0.1342    1.0724    0.0000 C   0  0
    2.3412    1.0598    0.0000 C   0  0
    1.1104    3.2228    0.0000 C   0  0
    4.7894    1.1004    0.0000 C   0  0
    3.5715    3.1983    0.0000 C   0  0
   -3.8448    0.3676    0.0000 C   0  0
   -5.0587    2.4907    0.0000 C   0  0
   -1.3694    0.3633    0.0000 C   0  0
   -2.6165    2.5072    0.0000 C   0  0
   -5.0835    1.0737    0.0000 C   0  0
   -2.6088    1.0848    0.0000 C   0  0
   -3.8699    3.1798    0.0000 C   0  0
   -1.3619    3.2237    0.0000 C   0  0
   -1.3088    4.6395    0.0000 C   0  0
    1.1248    4.6569    0.0000 C   0  0
    3.5663    4.6116    0.0000 C   0  0
   -0.1227    5.3332    0.0000 C   0  0
    2.3949    5.3464    0.0000 C   0  0
    2.4934    6.8308    0.0000 C   0  0
   -0.1460   -1.7808    0.0000 C   0  0
    2.3343   -1.7872    0.0000 C   0  0
   -1.3748   -1.0650    0.0000 C   0  0
    1.0916   -1.0718    0.0000 C   0  0
    3.5757   -1.0897    0.0000 C   0  0
   -5.0927   -1.7582    0.0000 C   0  0
   -2.6172   -1.7834    0.0000 C   0  0
   -6.3117   -1.0240    0.0000 C   0  0
   -3.8492   -1.0598    0.0000 C   0  0
   -6.3075    0.3473    0.0000 C   0  0
    1.0840   -3.9269    0.0000 C   0  0
    3.5487   -3.9439    0.0000 C   0  0
   -0.1555   -3.2161    0.0000 C   0  0
    2.3224   -3.2172    0.0000 C   0  0
    4.7674   -3.2217    0.0000 C   0  0
   -3.8916   -3.8719    0.0000 C   0  0
   -1.3841   -3.9337    0.0000 C   0  0
   -5.0762   -3.1759    0.0000 C   0  0
   -2.6334   -3.2082    0.0000 C   0  0
    4.7776   -1.8478    0.0000 C   0  0
   -0.1469   -6.0411    0.0000 C   0  0
    2.3342   -6.0499    0.0000 C   0  0
    1.0924   -5.3533    0.0000 C   0  0
    3.5236   -5.3675    0.0000 C   0  0
   -1.3375   -5.3552    0.0000 C   0  0
    4.5243    5.1285    0.0000 H   0  0
    5.7452    0.5811    0.0000 H   0  0
    5.7307    3.0228    0.0000 H   0  0
    5.7397   -1.3399    0.0000 H   0  0
    5.7082   -3.7748    0.0000 H   0  0
    4.4738   -5.9044    0.0000 H   0  0
    2.3199   -7.1409    0.0000 H   0  0
   -0.1434   -7.1324    0.0000 H   0  0
   -2.2643   -5.9248    0.0000 H   0  0
   -3.9287   -4.9593    0.0000 H   0  0
   -0.1257    6.4184    0.0000 H   0  0
   -2.2321    5.2146    0.0000 H   0  0
   -3.9001    4.2669    0.0000 H   0  0
   -6.0065    3.0318    0.0000 H   0  0
   -6.0275   -3.7110    0.0000 H   0  0
   -7.2462    0.9038    0.0000 H   0  0
   -7.2539   -1.5747    0.0000 H   0  0
    1.5720    7.6361    0.0000 O   0  0
    3.7940    7.2739    0.0000 O   0  0
    3.7129    8.2480    0.0000 H   0  0
M  END

> <TOTAL ENERGY>
BIOVIA, TYPE=DOUBLE, VERSION=1                                                  
 -2027.01083767

> <BINDING ENERGY>
BIOVIA, TYPE=DOUBLE, VERSION=1                                                  
   -16.18160951

> <HOMO ENERGY>
BIOVIA, TYPE=DOUBLE, VERSION=1                                                  
    -0.18257459

> <LUMO ENERGY>
BIOVIA, TYPE=DOUBLE, VERSION=1                                                  
    -0.10877351

> <LUMO-HOMO ENERGY>
BIOVIA, TYPE=DOUBLE, VERSION=1                                                  
     0.07380109

> <OPERATION STATUS>
BIOVIA, TYPE=STATUS, VERSION=1                                                  
SUCCESS

$$$$
