Materials Studio SDF calculation
TCVAMP81A 

 67  0  0  0  0  0              1 V2000
    1.0029    0.5261    0.0000 C   0  0
   -0.2112    2.6852    0.0000 C   0  0
    3.4767    0.5193    0.0000 C   0  0
    2.2645    2.6556    0.0000 C   0  0
    4.7119    2.6321    0.0000 C   0  0
   -0.2229    1.2510    0.0000 C   0  0
    2.2510    1.2349    0.0000 C   0  0
    1.0378    3.3821    0.0000 C   0  0
    4.7227    1.2310    0.0000 C   0  0
    3.5145    3.3600    0.0000 C   0  0
   -3.9359    0.5781    0.0000 C   0  0
   -5.1347    2.7086    0.0000 C   0  0
   -1.4621    0.5493    0.0000 C   0  0
   -2.6912    2.7090    0.0000 C   0  0
   -5.1691    1.2929    0.0000 C   0  0
   -2.6943    1.2855    0.0000 C   0  0
   -3.9391    3.3892    0.0000 C   0  0
   -1.4304    3.4202    0.0000 C   0  0
   -1.3648    4.8370    0.0000 C   0  0
    1.0654    4.8074    0.0000 C   0  0
    3.5019    4.7918    0.0000 C   0  0
   -0.1609    5.5094    0.0000 C   0  0
    2.3239    5.4868    0.0000 C   0  0
    2.3241    6.5784    0.0000 H   0  0
   -0.2475   -1.6011    0.0000 C   0  0
    2.2329   -1.6214    0.0000 C   0  0
   -1.4733   -0.8763    0.0000 C   0  0
    0.9931   -0.8974    0.0000 C   0  0
    3.4709   -0.9067    0.0000 C   0  0
   -5.1997   -1.5386    0.0000 C   0  0
   -2.7250   -1.5843    0.0000 C   0  0
   -6.4149   -0.7948    0.0000 C   0  0
   -3.9503   -0.8496    0.0000 C   0  0
   -6.4004    0.5756    0.0000 C   0  0
    0.9758   -3.7647    0.0000 C   0  0
    3.4872   -3.7127    0.0000 C   0  0
   -0.2577   -3.0373    0.0000 C   0  0
    2.2394   -3.0434    0.0000 C   0  0
    4.6838   -3.0235    0.0000 C   0  0
   -4.0116   -3.6582    0.0000 C   0  0
   -1.5018   -3.7455    0.0000 C   0  0
   -5.1943   -2.9536    0.0000 C   0  0
   -2.7517   -3.0040    0.0000 C   0  0
    4.7099   -1.6127    0.0000 C   0  0
   -0.2796   -5.8541    0.0000 C   0  0
    5.9380   -0.8801    0.0000 C   0  0
    0.9321   -5.1700    0.0000 C   0  0
    5.9456    0.4871    0.0000 C   0  0
   -1.4798   -5.1529    0.0000 C   0  0
    4.4587    5.3177    0.0000 H   0  0
    3.5197   -4.8004    0.0000 H   0  0
    5.6629    3.1702    0.0000 H   0  0
    1.8544   -5.7478    0.0000 H   0  0
    5.6298   -3.5685    0.0000 H   0  0
    6.8892    1.0360    0.0000 H   0  0
    6.8761   -1.4385    0.0000 O   0  0
   -0.2873   -6.9446    0.0000 H   0  0
   -2.4114   -5.7150    0.0000 H   0  0
   -4.0577   -4.7454    0.0000 H   0  0
   -0.1443    6.6009    0.0000 H   0  0
   -2.2826    5.4216    0.0000 H   0  0
   -3.9620    4.4771    0.0000 H   0  0
   -6.0789    3.2567    0.0000 H   0  0
   -6.1491   -3.4832    0.0000 H   0  0
   -7.3343    1.1407    0.0000 H   0  0
   -7.3610   -1.3396    0.0000 H   0  0
    7.6761   -1.8385    0.0000 H   0  0
M  END

> <TOTAL ENERGY>
BIOVIA, TYPE=DOUBLE, VERSION=1                                                  
 -1913.74721292

> <BINDING ENERGY>
BIOVIA, TYPE=DOUBLE, VERSION=1                                                  
   -15.71121319

> <HOMO ENERGY>
BIOVIA, TYPE=DOUBLE, VERSION=1                                                  
    -0.16770082

> <LUMO ENERGY>
BIOVIA, TYPE=DOUBLE, VERSION=1                                                  
    -0.10406069

> <LUMO-HOMO ENERGY>
BIOVIA, TYPE=DOUBLE, VERSION=1                                                  
     0.06364013

> <OPERATION STATUS>
BIOVIA, TYPE=STATUS, VERSION=1                                                  
SUCCESS

$$$$
