Materials Studio SDF calculation
TCVAMP81A 

 67  0  0  0  0  0              1 V2000
    1.2118    0.5021   -0.0159 C   0  0
   -0.0003    2.6603   -0.0419 C   0  0
    3.6868    0.4945   -0.0031 C   0  0
    2.4733    2.6303   -0.0349 C   0  0
    4.9212    2.6075   -0.0201 C   0  0
   -0.0150    1.2268   -0.0228 C   0  0
    2.4594    1.2101   -0.0183 C   0  0
    1.2459    3.3561   -0.0501 C   0  0
    4.9318    1.2063   -0.0016 C   0  0
    3.7235    3.3355   -0.0369 C   0  0
   -3.7239    0.5630    0.0256 C   0  0
   -4.9207    2.7233   -0.0122 C   0  0
   -1.2552    0.5246   -0.0098 C   0  0
   -2.4758    2.6942   -0.0363 C   0  0
   -4.9791    1.2903    0.0314 C   0  0
   -2.4934    1.2603   -0.0074 C   0  0
   -3.7275    3.3852   -0.0434 C   0  0
   -1.2257    3.3960   -0.0548 C   0  0
   -1.1551    4.8179   -0.0858 C   0  0
    1.2757    4.7835   -0.0737 C   0  0
    3.7115    4.7659   -0.0566 C   0  0
    0.0475    5.4863   -0.0940 C   0  0
    2.5311    5.4612   -0.0760 C   0  0
    2.5317    6.5528   -0.0924 H   0  0
   -0.0360   -1.6254   -0.0020 C   0  0
    2.4442   -1.6461    0.0032 C   0  0
   -1.2658   -0.8993    0.0013 C   0  0
    1.2023   -0.9228   -0.0059 C   0  0
    3.6819   -0.9308    0.0103 C   0  0
   -4.9799   -1.5701    0.0898 C   0  0
   -2.5170   -1.6059    0.0216 C   0  0
   -6.2974   -0.8434    0.1451 C   0  0
   -3.7469   -0.8728    0.0471 C   0  0
   -6.1874    0.6335    0.0812 C   0  0
    1.1914   -3.7886   -0.0155 C   0  0
    3.7014   -3.7370    0.0312 C   0  0
   -0.0425   -3.0626   -0.0073 C   0  0
    2.4529   -3.0672    0.0059 C   0  0
    4.8965   -3.0472    0.0441 C   0  0
   -3.7835   -3.6817    0.0669 C   0  0
   -1.2831   -3.7727   -0.0103 C   0  0
   -4.9725   -2.9651    0.0987 C   0  0
   -2.5377   -3.0302    0.0241 C   0  0
    4.9214   -1.6362    0.0294 C   0  0
   -0.0594   -5.8788   -0.0682 C   0  0
    6.1485   -0.9035    0.0351 C   0  0
    1.1499   -5.1950   -0.0491 C   0  0
    6.1550    0.4636    0.0187 C   0  0
   -1.2610   -5.1768   -0.0456 C   0  0
    4.6680    5.2922   -0.0565 H   0  0
    3.7336   -4.8245    0.0456 H   0  0
    5.8722    3.1455   -0.0201 H   0  0
    2.0736   -5.7695   -0.0667 H   0  0
    5.8430   -3.5911    0.0649 H   0  0
    7.0979    1.0138    0.0215 H   0  0
    7.0869   -1.4614    0.0513 H   0  0
   -0.0678   -6.9690   -0.0999 H   0  0
   -2.1922   -5.7395   -0.0613 H   0  0
   -3.8344   -4.7685    0.0811 H   0  0
    0.0661    6.5776   -0.1171 H   0  0
   -2.0710    5.4047   -0.1017 H   0  0
   -3.7404    4.4728   -0.0723 H   0  0
   -5.8610    3.2777   -0.0162 H   0  0
   -5.9238   -3.5014    0.1352 H   0  0
   -7.1090    1.2194    0.0861 H   0  0
   -6.9609   -1.2116   -0.6640 H   0  0
   -6.4358   -0.7397    1.0713 H   0  0
M  END

> <TOTAL ENERGY>
BIOVIA, TYPE=DOUBLE, VERSION=1                                                  
 -1839.11387788

> <BINDING ENERGY>
BIOVIA, TYPE=DOUBLE, VERSION=1                                                  
   -15.57889882

> <HOMO ENERGY>
BIOVIA, TYPE=DOUBLE, VERSION=1                                                  
    -0.17267606

> <LUMO ENERGY>
BIOVIA, TYPE=DOUBLE, VERSION=1                                                  
    -0.13245750

> <LUMO-HOMO ENERGY>
BIOVIA, TYPE=DOUBLE, VERSION=1                                                  
     0.04021856

> <OPERATION STATUS>
BIOVIA, TYPE=STATUS, VERSION=1                                                  
SUCCESS

$$$$
