Materials Studio SDF calculation
TCVAMP81A 

 67  0  0  0  0  0              1 V2000
    1.1842    0.4527   -0.0228 C   0  0
   -0.0299    2.6118   -0.0359 C   0  0
    3.6580    0.4459   -0.0199 C   0  0
    2.4458    2.5821   -0.0329 C   0  0
    4.8932    2.5587   -0.0299 C   0  0
   -0.0416    1.1775   -0.0281 C   0  0
    2.4324    1.1614   -0.0252 C   0  0
    1.2192    3.3086   -0.0383 C   0  0
    4.9040    1.1576   -0.0223 C   0  0
    3.6959    3.2866   -0.0353 C   0  0
   -3.7545    0.5047   -0.0288 C   0  0
   -4.9533    2.6351   -0.0417 C   0  0
   -1.2808    0.4759   -0.0258 C   0  0
   -2.5098    2.6355   -0.0389 C   0  0
   -4.9878    1.2195   -0.0341 C   0  0
   -2.5130    1.2121   -0.0312 C   0  0
   -3.7577    3.3157   -0.0441 C   0  0
   -1.2490    3.3467   -0.0413 C   0  0
   -1.1834    4.7635   -0.0490 C   0  0
    1.2468    4.7339   -0.0460 C   0  0
    3.6833    4.7183   -0.0431 C   0  0
    0.0205    5.4359   -0.0512 C   0  0
    2.5052    5.4133   -0.0482 C   0  0
    2.5054    6.5049   -0.0542 H   0  0
   -0.0662   -1.6746   -0.0127 C   0  0
    2.4142   -1.6948   -0.0097 C   0  0
   -1.2920   -0.9498   -0.0180 C   0  0
    1.1744   -0.9708   -0.0151 C   0  0
    3.6522   -0.9801   -0.0122 C   0  0
   -5.0184   -1.6121   -0.0187 C   0  0
   -2.5436   -1.6577   -0.0156 C   0  0
   -6.2336   -0.8683   -0.0242 C   0  0
   -3.7690   -0.9230   -0.0210 C   0  0
   -6.2190    0.5021   -0.0316 C   0  0
    1.1571   -3.8381    0.0005 C   0  0
    3.6686   -3.7860    0.0031 C   0  0
   -0.0763   -3.1107   -0.0049 C   0  0
    2.4208   -3.1168   -0.0020 C   0  0
    4.8651   -3.0968    0.0008 C   0  0
   -3.8303   -3.7317   -0.0058 C   0  0
   -1.3205   -3.8188   -0.0025 C   0  0
   -5.0129   -3.0270   -0.0110 C   0  0
   -2.5704   -3.0774   -0.0079 C   0  0
    4.8912   -1.6861   -0.0069 C   0  0
   -0.0982   -5.9274    0.0104 C   0  0
    6.1193   -0.9535   -0.0094 C   0  0
    1.1134   -5.2433    0.0081 C   0  0
    6.1269    0.4137   -0.0169 C   0  0
   -1.2985   -5.2263    0.0052 C   0  0
    4.6400    5.2443   -0.0448 H   0  0
    3.7011   -4.8738    0.0091 H   0  0
    5.8442    3.0967   -0.0318 H   0  0
    2.0358   -5.8212    0.0123 H   0  0
    5.8111   -3.6419    0.0048 H   0  0
    7.0705    0.9626   -0.0188 H   0  0
    7.0575   -1.5118   -0.0053 H   0  0
   -0.1060   -7.0180    0.0163 H   0  0
   -2.2300   -5.7883    0.0072 H   0  0
   -3.8763   -4.8188    0.0000 H   0  0
    0.0370    6.5273   -0.0571 H   0  0
   -2.1012    5.3480   -0.0532 H   0  0
   -3.7807    4.4036   -0.0500 H   0  0
   -5.8976    3.1831   -0.0458 H   0  0
   -5.9677   -3.5566   -0.0093 H   0  0
   -7.1530    1.0672   -0.0358 H   0  0
   -7.1797   -1.4131   -0.0223 H   0  0
   -4.2923    3.0082    1.4109 O   0  0
M  END

> <TOTAL ENERGY>
BIOVIA, TYPE=DOUBLE, VERSION=1                                                  
 -1913.69079650

> <BINDING ENERGY>
BIOVIA, TYPE=DOUBLE, VERSION=1                                                  
   -15.65479677

> <HOMO ENERGY>
BIOVIA, TYPE=DOUBLE, VERSION=1                                                  
    -0.16752575

> <LUMO ENERGY>
BIOVIA, TYPE=DOUBLE, VERSION=1                                                  
    -0.11297030

> <LUMO-HOMO ENERGY>
BIOVIA, TYPE=DOUBLE, VERSION=1                                                  
     0.05455545

> <OPERATION STATUS>
BIOVIA, TYPE=STATUS, VERSION=1                                                  
SUCCESS

$$$$
