Materials Studio SDF calculation
TCVAMP81A 

 67  0  0  0  0  0              1 V2000
    1.0649    0.4286   -0.0144 C   0  0
   -0.1492    2.5877   -0.0275 C   0  0
    3.5387    0.4218   -0.0115 C   0  0
    2.3265    2.5580   -0.0245 C   0  0
    4.7739    2.5346   -0.0215 C   0  0
   -0.1609    1.1534   -0.0197 C   0  0
    2.3130    1.1373   -0.0168 C   0  0
    1.0999    3.2845   -0.0298 C   0  0
    4.7847    1.1335   -0.0139 C   0  0
    3.5765    3.2625   -0.0268 C   0  0
   -3.8738    0.4806   -0.0203 C   0  0
   -5.0726    2.6110   -0.0333 C   0  0
   -1.4001    0.4518   -0.0173 C   0  0
   -2.6291    2.6114   -0.0305 C   0  0
   -5.1071    1.1954   -0.0257 C   0  0
   -2.6323    1.1880   -0.0228 C   0  0
   -3.8770    3.2916   -0.0356 C   0  0
   -1.3683    3.3226   -0.0329 C   0  0
   -1.3027    4.7394   -0.0405 C   0  0
    1.1275    4.7098   -0.0375 C   0  0
    3.5640    4.6942   -0.0346 C   0  0
   -0.0988    5.4118   -0.0428 C   0  0
    2.3859    5.3892   -0.0398 C   0  0
    2.3861    6.4808   -0.0457 H   0  0
   -0.1855   -1.6987   -0.0042 C   0  0
    2.2949   -1.7189   -0.0013 C   0  0
   -1.4113   -0.9739   -0.0096 C   0  0
    1.0551   -0.9949   -0.0066 C   0  0
    3.5329   -1.0042   -0.0037 C   0  0
   -5.1377   -1.6362   -0.0103 C   0  0
   -2.6630   -1.6818   -0.0072 C   0  0
   -6.3529   -0.8924   -0.0157 C   0  0
   -3.8883   -0.9471   -0.0126 C   0  0
   -6.3384    0.4780   -0.0232 C   0  0
    1.0378   -3.8622    0.0089 C   0  0
    3.5492   -3.8101    0.0116 C   0  0
   -0.1957   -3.1348    0.0036 C   0  0
    2.3014   -3.1409    0.0065 C   0  0
    4.7458   -3.1209    0.0092 C   0  0
   -3.9496   -3.7557    0.0026 C   0  0
   -1.4398   -3.8429    0.0060 C   0  0
   -5.1323   -3.0511   -0.0026 C   0  0
   -2.6897   -3.1015    0.0005 C   0  0
    4.7719   -1.7102    0.0016 C   0  0
   -0.2175   -5.9515    0.0188 C   0  0
    6.0000   -0.9776   -0.0010 C   0  0
    0.9941   -5.2674    0.0165 C   0  0
    6.0076    0.3896   -0.0084 C   0  0
   -1.4178   -5.2504    0.0136 C   0  0
    4.5207    5.2202   -0.0364 H   0  0
    3.5818   -4.8979    0.0175 H   0  0
    5.7249    3.0726   -0.0233 H   0  0
    1.9164   -5.8453    0.0207 H   0  0
    5.6918   -3.6660    0.0132 H   0  0
    6.9512    0.9385   -0.0103 H   0  0
    6.9381   -1.5359    0.0031 H   0  0
   -0.2253   -7.0421    0.0248 H   0  0
   -2.3494   -5.8124    0.0156 H   0  0
   -3.9956   -4.8429    0.0084 H   0  0
   -0.0823    6.5032   -0.0487 H   0  0
   -2.2205    5.3239   -0.0448 H   0  0
   -3.9000    4.3795   -0.0416 H   0  0
   -6.0169    3.1591   -0.0374 H   0  0
   -6.0871   -3.5807   -0.0008 H   0  0
   -7.2723    1.0431   -0.0273 H   0  0
   -7.2990   -1.4372   -0.0139 H   0  0
    3.5824    4.5985    0.8538 H   0  0
M  END

> <TOTAL ENERGY>
BIOVIA, TYPE=DOUBLE, VERSION=1                                                  
 -1839.11795837

> <BINDING ENERGY>
BIOVIA, TYPE=DOUBLE, VERSION=1                                                  
   -15.58297931

> <HOMO ENERGY>
BIOVIA, TYPE=DOUBLE, VERSION=1                                                  
    -0.17694964

> <LUMO ENERGY>
BIOVIA, TYPE=DOUBLE, VERSION=1                                                  
    -0.13316201

> <LUMO-HOMO ENERGY>
BIOVIA, TYPE=DOUBLE, VERSION=1                                                  
     0.04378763

> <OPERATION STATUS>
BIOVIA, TYPE=STATUS, VERSION=1                                                  
SUCCESS

$$$$
