Materials Studio SDF calculation
TCVAMP81A 

 69  0  0  0  0  0              1 V2000
    1.3334    0.6262    0.0480 C   0  0
    0.1298    2.7908    0.0227 C   0  0
    3.8167    0.6033    0.0655 C   0  0
    2.6087    2.7492    0.0393 C   0  0
    5.0501    2.7125    0.0537 C   0  0
    0.1100    1.3553    0.0325 C   0  0
    2.5887    1.3196    0.0516 C   0  0
    1.3830    3.4810    0.0256 C   0  0
    5.0310    1.3347    0.0667 C   0  0
    3.8415    3.4635    0.0406 C   0  0
   -3.6134    0.6972   -0.0148 C   0  0
   -4.7894    2.8209   -0.0306 C   0  0
   -1.1359    0.6612    0.0228 C   0  0
   -2.3510    2.8263    0.0025 C   0  0
   -4.8272    1.4240   -0.0432 C   0  0
   -2.3643    1.3992    0.0025 C   0  0
   -3.5861    3.5086   -0.0036 C   0  0
   -1.0827    3.5304    0.0086 C   0  0
   -1.0142    4.9476   -0.0072 C   0  0
    1.4144    4.9074    0.0125 C   0  0
    3.8467    4.8861    0.0285 C   0  0
    0.1881    5.6151   -0.0041 C   0  0
    2.6670    5.5848    0.0149 C   0  0
    0.0647   -1.4927    0.0556 C   0  0
    2.5457   -1.5255    0.0773 C   0  0
   -1.1569   -0.7648    0.0343 C   0  0
    1.3114   -0.7978    0.0603 C   0  0
    3.7962   -0.8417    0.0788 C   0  0
   -4.8967   -1.4295   -0.0095 C   0  0
   -2.4123   -1.4676    0.0269 C   0  0
   -6.0875   -0.7348   -0.0419 C   0  0
   -3.6245   -0.7372    0.0007 C   0  0
   -6.1695    0.7423   -0.1376 C   0  0
    1.2706   -3.6503    0.0932 C   0  0
    3.7353   -3.6958    0.1118 C   0  0
    0.0414   -2.9266    0.0730 C   0  0
    2.5181   -2.9544    0.0938 C   0  0
    4.9629   -2.9878    0.1107 C   0  0
   -3.7038   -3.5596    0.0462 C   0  0
   -1.2011   -3.6317    0.0713 C   0  0
   -4.8775   -2.8641    0.0182 C   0  0
   -2.4338   -2.9011    0.0487 C   0  0
    4.9879   -1.6135    0.0936 C   0  0
    0.0158   -5.7540    0.1129 C   0  0
    2.4959   -5.7877    0.1319 C   0  0
    1.2643   -5.0784    0.1131 C   0  0
    3.6944   -5.1183    0.1313 C   0  0
   -1.1661   -5.0579    0.0927 C   0  0
    4.8047    5.4035    0.0300 H   0  0
    5.9854    0.8076    0.0773 H   0  0
    5.9563   -1.1169    0.0939 H   0  0
    5.8970   -3.5518    0.1236 H   0  0
    2.4696   -6.8786    0.1476 H   0  0
    0.0090   -6.8451    0.1291 H   0  0
   -2.0979   -5.6191    0.0930 H   0  0
   -3.7458   -4.6464    0.0674 H   0  0
    0.2101    6.7059   -0.0174 H   0  0
   -1.9309    5.5331   -0.0244 H   0  0
   -3.6113    4.5960    0.0096 H   0  0
   -5.7313    3.3711   -0.0589 H   0  0
   -5.8327   -3.3918    0.0159 H   0  0
   -6.8410    1.1432    0.6424 H   0  0
   -7.0329   -1.2803   -0.0555 H   0  0
   -6.8748    1.1298   -1.3653 O   0  0
   -6.3426    0.7706   -2.0990 H   0  0
    2.6703    6.6758    0.0052 H   0  0
    6.2168    3.4334    0.0538 O   0  0
    6.9641    2.8116    0.0638 H   0  0
    4.6382   -5.6660    0.1458 H   0  0
M  END

> <TOTAL ENERGY>
BIOVIA, TYPE=DOUBLE, VERSION=1                                                  
 -1989.46066407

> <BINDING ENERGY>
BIOVIA, TYPE=DOUBLE, VERSION=1                                                  
   -15.92426477

> <HOMO ENERGY>
BIOVIA, TYPE=DOUBLE, VERSION=1                                                  
    -0.15299556

> <LUMO ENERGY>
BIOVIA, TYPE=DOUBLE, VERSION=1                                                  
    -0.13588306

> <LUMO-HOMO ENERGY>
BIOVIA, TYPE=DOUBLE, VERSION=1                                                  
     0.01711250

> <OPERATION STATUS>
BIOVIA, TYPE=STATUS, VERSION=1                                                  
SUCCESS

$$$$
