Materials Studio SDF calculation
TCVAMP81A 

 71  0  0  0  0  0              1 V2000
    0.9307    0.4026   -0.0044 C   0  0
   -0.2771    2.5702   -0.0135 C   0  0
    3.4118    0.3890   -0.0080 C   0  0
    2.1920    2.5310   -0.0122 C   0  0
    4.6433    2.4933   -0.0136 C   0  0
   -0.2920    1.1335   -0.0066 C   0  0
    2.1794    1.1020   -0.0084 C   0  0
    0.9725    3.2765   -0.0144 C   0  0
    4.6272    1.1182   -0.0103 C   0  0
    3.4280    3.2365   -0.0141 C   0  0
   -4.0086    0.4588    0.0014 C   0  0
   -5.2035    2.5920   -0.0177 C   0  0
   -1.5331    0.4340   -0.0016 C   0  0
   -2.7613    2.5876   -0.0166 C   0  0
   -5.2406    1.1755   -0.0033 C   0  0
   -2.7663    1.1655   -0.0056 C   0  0
   -4.0087    3.2706   -0.0240 C   0  0
   -1.5005    3.2937   -0.0191 C   0  0
   -1.4373    4.7083   -0.0274 C   0  0
    0.9983    4.7117   -0.0174 C   0  0
    3.4422    4.6458   -0.0137 C   0  0
   -0.2467    5.3952   -0.0259 C   0  0
    2.2760    5.3892   -0.0135 C   0  0
   -0.3286   -1.7192    0.0088 C   0  0
    2.1521   -1.7448    0.0017 C   0  0
   -1.5513   -0.9941    0.0075 C   0  0
    0.9144   -1.0208    0.0021 C   0  0
    3.3982   -1.0557   -0.0047 C   0  0
   -5.2751   -1.6562    0.0246 C   0  0
   -2.8000   -1.7022    0.0159 C   0  0
   -6.4874   -0.9110    0.0208 C   0  0
   -4.0254   -0.9684    0.0139 C   0  0
   -6.4714    0.4601    0.0060 C   0  0
    0.8838   -3.8725    0.0167 C   0  0
    3.3553   -3.9014    0.0062 C   0  0
   -0.3491   -3.1535    0.0174 C   0  0
    2.1300   -3.1756    0.0080 C   0  0
    4.5811   -3.1947   -0.0020 C   0  0
   -4.0915   -3.7792    0.0408 C   0  0
   -1.5842   -3.8608    0.0269 C   0  0
   -5.2706   -3.0732    0.0394 C   0  0
   -2.8278   -3.1262    0.0276 C   0  0
    4.5941   -1.8203   -0.0073 C   0  0
   -0.3601   -5.9775    0.0355 C   0  0
    2.1173   -6.0047    0.0240 C   0  0
    0.8847   -5.2983    0.0254 C   0  0
    3.3157   -5.3320    0.0138 C   0  0
   -1.5455   -5.2818    0.0362 C   0  0
    4.4038    5.1507   -0.0146 H   0  0
    5.5812    0.5916   -0.0088 H   0  0
    5.5600   -1.3193   -0.0133 H   0  0
    5.5144   -3.7548   -0.0039 H   0  0
    2.0976   -7.0974    0.0310 H   0  0
   -0.3666   -7.0686    0.0426 H   0  0
   -2.4757   -5.8461    0.0432 H   0  0
   -4.1377   -4.8662    0.0535 H   0  0
   -0.2467    6.4808   -0.0310 H   0  0
   -2.3579    5.2881   -0.0332 H   0  0
   -4.0301    4.3579   -0.0348 H   0  0
   -6.1465    3.1414   -0.0232 H   0  0
   -6.2263   -3.6006    0.0496 H   0  0
   -7.4047    1.0254    0.0022 H   0  0
   -7.4346   -1.4534    0.0289 H   0  0
    5.8031    3.2197   -0.0152 O   0  0
    6.5549    2.6034   -0.0140 H   0  0
    4.5309   -5.9689    0.0111 O   0  0
    4.3750   -6.9285    0.0163 H   0  0
    2.3964    6.8711   -0.0339 C   0  0
    1.4842    7.6867   -0.0415 O   0  0
    3.7042    7.2976   -0.0463 O   0  0
    3.6366    8.2728   -0.0797 H   0  0
M  END

> <TOTAL ENERGY>
BIOVIA, TYPE=DOUBLE, VERSION=1                                                  
 -2177.38526110

> <BINDING ENERGY>
BIOVIA, TYPE=DOUBLE, VERSION=1                                                  
   -16.55461270

> <HOMO ENERGY>
BIOVIA, TYPE=DOUBLE, VERSION=1                                                  
    -0.17656246

> <LUMO ENERGY>
BIOVIA, TYPE=DOUBLE, VERSION=1                                                  
    -0.10720648

> <LUMO-HOMO ENERGY>
BIOVIA, TYPE=DOUBLE, VERSION=1                                                  
     0.06935597

> <OPERATION STATUS>
BIOVIA, TYPE=STATUS, VERSION=1                                                  
SUCCESS

$$$$
