Materials Studio SDF calculation
TCVAMP81A 

 75  0  0  0  0  0              1 V2000
    1.2758    0.4246    0.0056 C   0  0
    0.0633    2.5896    0.0137 C   0  0
    3.7605    0.4075    0.0023 C   0  0
    2.5412    2.5522    0.0304 C   0  0
    4.9847    2.5207    0.0354 C   0  0
    0.0494    1.1506    0.0071 C   0  0
    2.5308    1.1223    0.0118 C   0  0
    1.3144    3.2811    0.0337 C   0  0
    4.9732    1.1461    0.0137 C   0  0
    3.7785    3.2605    0.0435 C   0  0
   -3.6649    0.4926   -0.0591 C   0  0
   -4.8479    2.6053   -0.2019 C   0  0
   -1.1904    0.4541    0.0015 C   0  0
   -2.4161    2.6212   -0.0485 C   0  0
   -4.8722    1.2069   -0.1871 C   0  0
   -2.4236    1.1913   -0.0278 C   0  0
   -3.6489    3.2989   -0.1202 C   0  0
   -1.1483    3.3280   -0.0021 C   0  0
   -1.0831    4.7448    0.0275 C   0  0
    1.3445    4.7077    0.0543 C   0  0
    3.7750    4.6857    0.0644 C   0  0
    0.1186    5.4140    0.0574 C   0  0
    2.5982    5.3867    0.0710 C   0  0
    0.0156   -1.6981    0.0032 C   0  0
    2.4976   -1.7256   -0.0159 C   0  0
   -1.2079   -0.9739    0.0039 C   0  0
    1.2591   -0.9998   -0.0022 C   0  0
    3.7438   -1.0387   -0.0175 C   0  0
   -4.9104   -1.6394    0.1708 C   0  0
   -2.4585   -1.6821    0.0351 C   0  0
   -6.2042   -0.8760    0.3169 C   0  0
   -3.6861   -0.9575    0.0363 C   0  0
   -6.1653    0.4681   -0.4127 C   0  0
    1.2310   -3.8561   -0.0209 C   0  0
    3.6946   -3.8915   -0.0536 C   0  0
   -0.0031   -3.1369    0.0053 C   0  0
    2.4748   -3.1552   -0.0315 C   0  0
    4.9183   -3.1796   -0.0577 C   0  0
   -3.7293   -3.7542    0.2091 C   0  0
   -1.2325   -3.8461    0.0375 C   0  0
   -4.9120   -3.0330    0.2657 C   0  0
   -2.4825   -3.1093    0.0885 C   0  0
    4.9388   -1.8049   -0.0383 C   0  0
   -0.0134   -5.9615   -0.0198 C   0  0
    2.4665   -5.9896   -0.0598 C   0  0
    1.2287   -5.2832   -0.0336 C   0  0
    3.6591   -5.3163   -0.0699 C   0  0
   -1.1992   -5.2646    0.0170 C   0  0
    4.7339    5.2071    0.0749 H   0  0
    5.9268    0.6220    0.0082 H   0  0
    5.9042   -1.3030   -0.0422 H   0  0
    5.8548   -3.7397   -0.0752 H   0  0
    2.4435   -7.0805   -0.0713 H   0  0
   -0.0190   -7.0525   -0.0392 H   0  0
   -2.1316   -5.8256    0.0205 H   0  0
   -3.7798   -4.8393    0.2759 H   0  0
    0.1386    6.5047    0.0818 H   0  0
   -2.0010    5.3286    0.0312 H   0  0
   -3.6762    4.3863   -0.1324 H   0  0
   -5.7900    3.1528   -0.2816 H   0  0
   -5.8629   -3.5550    0.3883 H   0  0
   -7.0102    1.0755   -0.0438 H   0  0
   -7.0289   -1.4579   -0.1190 H   0  0
   -6.3446    0.1659   -1.8146 O   0  0
   -5.9342    0.8874   -2.3201 H   0  0
   -6.5519   -0.7084    1.7048 O   0  0
   -5.7531   -0.4011    2.1685 H   0  0
    2.6401    6.5211   -0.0168 C   0  0
    1.7186    7.3264   -0.0200 O   0  0
    3.9407    6.9642   -0.0203 O   0  0
    3.8595    7.9383   -0.0234 H   0  0
    6.3311    3.2362   -0.0028 O   0  0
    7.0812    2.6178    0.0020 H   0  0
    4.8649   -5.9497    0.0397 O   0  0
    4.7092   -6.9090    0.0442 H   0  0
M  END

> <TOTAL ENERGY>
BIOVIA, TYPE=DOUBLE, VERSION=1                                                  
 -2328.92704189

> <BINDING ENERGY>
BIOVIA, TYPE=DOUBLE, VERSION=1                                                  
   -17.09559434

> <HOMO ENERGY>
BIOVIA, TYPE=DOUBLE, VERSION=1                                                  
    -0.17935660

> <LUMO ENERGY>
BIOVIA, TYPE=DOUBLE, VERSION=1                                                  
    -0.11371355

> <LUMO-HOMO ENERGY>
BIOVIA, TYPE=DOUBLE, VERSION=1                                                  
     0.06564305

> <OPERATION STATUS>
BIOVIA, TYPE=STATUS, VERSION=1                                                  
SUCCESS

$$$$
