Materials Studio SDF calculation
TCVAMP81A 

 70  0  0  0  0  0              1 V2000
    1.5492    0.5725   -0.0643 C   0  0
    0.3367    2.7374   -0.0562 C   0  0
    4.0339    0.5553   -0.0675 C   0  0
    2.8146    2.7001   -0.0395 C   0  0
    5.2581    2.6685   -0.0344 C   0  0
    0.3228    1.2984   -0.0627 C   0  0
    2.8042    1.2702   -0.0581 C   0  0
    1.5878    3.4289   -0.0362 C   0  0
    5.2466    1.2939   -0.0561 C   0  0
    4.0519    3.4083   -0.0264 C   0  0
   -3.3915    0.6405   -0.1290 C   0  0
   -4.5745    2.7531   -0.2717 C   0  0
   -0.9170    0.6019   -0.0683 C   0  0
   -2.1427    2.7690   -0.1184 C   0  0
   -4.5988    1.3547   -0.2569 C   0  0
   -2.1502    1.3392   -0.0976 C   0  0
   -3.3755    3.4467   -0.1900 C   0  0
   -0.8749    3.4758   -0.0719 C   0  0
   -0.8097    4.8926   -0.0424 C   0  0
    1.6179    4.8555   -0.0156 C   0  0
    4.0484    4.8335   -0.0055 C   0  0
    0.3920    5.5618   -0.0124 C   0  0
    2.8716    5.5345    0.0011 C   0  0
    2.8735    6.6255    0.0176 H   0  0
    0.2890   -1.5503   -0.0666 C   0  0
    2.7710   -1.5778   -0.0857 C   0  0
   -0.9344   -0.8261   -0.0659 C   0  0
    1.5325   -0.8520   -0.0721 C   0  0
    4.0172   -0.8909   -0.0873 C   0  0
   -4.6370   -1.4916    0.1010 C   0  0
   -2.1851   -1.5343   -0.0347 C   0  0
   -5.9308   -0.7281    0.2471 C   0  0
   -3.4127   -0.8097   -0.0335 C   0  0
   -5.8919    0.6159   -0.4826 C   0  0
    1.5044   -3.7083   -0.0907 C   0  0
    3.9680   -3.7436   -0.1234 C   0  0
    0.2703   -2.9890   -0.0646 C   0  0
    2.7482   -3.0074   -0.1014 C   0  0
    5.1917   -3.0317   -0.1276 C   0  0
   -3.4559   -3.6063    0.1392 C   0  0
   -0.9591   -3.6983   -0.0324 C   0  0
   -4.6386   -2.8851    0.1959 C   0  0
   -2.2091   -2.9614    0.0187 C   0  0
    5.2122   -1.6571   -0.1081 C   0  0
    0.2600   -5.8137   -0.0896 C   0  0
    2.7399   -5.8417   -0.1296 C   0  0
    1.5021   -5.1354   -0.1034 C   0  0
    3.9325   -5.1684   -0.1397 C   0  0
   -0.9258   -5.1168   -0.0528 C   0  0
    5.0073    5.3550    0.0050 H   0  0
    6.2002    0.7699   -0.0617 H   0  0
    6.2077    3.2064   -0.0244 H   0  0
    6.1776   -1.1552   -0.1121 H   0  0
    6.1282   -3.5918   -0.1451 H   0  0
    4.8792   -5.7113   -0.1586 H   0  0
    2.7169   -6.9327   -0.1412 H   0  0
    0.2544   -6.9046   -0.1090 H   0  0
   -1.8581   -5.6778   -0.0494 H   0  0
   -3.5064   -4.6915    0.2060 H   0  0
    0.4120    6.6525    0.0119 H   0  0
   -1.7276    5.4765   -0.0387 H   0  0
   -3.4028    4.5341   -0.2023 H   0  0
   -5.5166    3.3007   -0.3514 H   0  0
   -5.5895   -3.4072    0.3185 H   0  0
   -6.7367    1.2234   -0.1137 H   0  0
   -6.7555   -1.3101   -0.1888 H   0  0
   -4.9732    1.3137    0.9773 O   0  0
   -6.0739    0.8647    0.6955 H   0  0
   -5.1823    3.2973    1.2625 O   0  0
   -4.3943    2.7798    1.3723 H   0  0
M  END

> <TOTAL ENERGY>
BIOVIA, TYPE=DOUBLE, VERSION=1                                                  
 -1990.03754403

> <BINDING ENERGY>
BIOVIA, TYPE=DOUBLE, VERSION=1                                                  
   -16.00145527

> <HOMO ENERGY>
BIOVIA, TYPE=DOUBLE, VERSION=1                                                  
    -0.16649873

> <LUMO ENERGY>
BIOVIA, TYPE=DOUBLE, VERSION=1                                                  
    -0.12009060

> <LUMO-HOMO ENERGY>
BIOVIA, TYPE=DOUBLE, VERSION=1                                                  
     0.04640813

> <OPERATION STATUS>
BIOVIA, TYPE=STATUS, VERSION=1                                                  
SUCCESS

$$$$
