Materials Studio SDF calculation
TCVAMP81A 

 67  0  0  0  0  0              1 V2000
    1.2495    0.6210   -0.0174 C   0  0
    0.0274    2.7802   -0.0306 C   0  0
    3.7334    0.6096   -0.0131 C   0  0
    2.5057    2.7517   -0.0261 C   0  0
    4.9513    2.7276   -0.0218 C   0  0
    0.0200    1.3457   -0.0233 C   0  0
    2.5010    1.3223   -0.0189 C   0  0
    1.2758    3.4767   -0.0320 C   0  0
    4.9452    1.3535   -0.0148 C   0  0
    3.7409    3.4645   -0.0276 C   0  0
   -3.6920    0.6679   -0.0262 C   0  0
   -4.8938    2.7979   -0.0392 C   0  0
   -1.2186    0.6454   -0.0218 C   0  0
   -2.4507    2.8022   -0.0350 C   0  0
   -4.9268    1.3813   -0.0320 C   0  0
   -2.4516    1.3786   -0.0277 C   0  0
   -3.7008    3.4797   -0.0406 C   0  0
   -1.1929    3.5133   -0.0364 C   0  0
   -1.1290    4.9337   -0.0436 C   0  0
    1.3011    4.9025   -0.0392 C   0  0
    3.7323    4.8882   -0.0349 C   0  0
    0.0702    5.6046   -0.0449 C   0  0
    2.5510    5.5845   -0.0405 C   0  0
    2.5494    6.6758   -0.0461 H   0  0
   -0.0057   -1.5042   -0.0088 C   0  0
    2.4753   -1.5254   -0.0043 C   0  0
   -1.2315   -0.7817   -0.0146 C   0  0
    1.2367   -0.8018   -0.0102 C   0  0
    3.7203   -0.8351   -0.0057 C   0  0
   -4.9524   -1.4507   -0.0176 C   0  0
   -2.4775   -1.4925   -0.0131 C   0  0
   -6.1679   -0.7092   -0.0235 C   0  0
   -3.7048   -0.7597   -0.0190 C   0  0
   -6.1555    0.6619   -0.0305 C   0  0
    1.2115   -3.6574    0.0044 C   0  0
    3.6764   -3.6896    0.0088 C   0  0
   -0.0242   -2.9386   -0.0015 C   0  0
    2.4542   -2.9548    0.0029 C   0  0
    4.8999   -2.9747    0.0073 C   0  0
   -3.7643   -3.5708   -0.0047 C   0  0
   -1.2575   -3.6496    0.0000 C   0  0
   -4.9449   -2.8677   -0.0103 C   0  0
   -2.5022   -2.9159   -0.0059 C   0  0
    4.9185   -1.6007    0.0003 C   0  0
   -0.0323   -5.7633    0.0130 C   0  0
    2.4484   -5.7879    0.0174 C   0  0
    1.2111   -5.0835    0.0116 C   0  0
    3.6421   -5.1130    0.0160 C   0  0
   -1.2192   -5.0709    0.0074 C   0  0
    4.6878    5.4154   -0.0360 H   0  0
    5.8996    0.8313   -0.0105 H   0  0
    5.8977    3.2712   -0.0229 H   0  0
    5.8822   -1.0958   -0.0006 H   0  0
    5.8363   -3.5353    0.0117 H   0  0
    4.5879   -5.6573    0.0204 H   0  0
    2.4272   -6.8789    0.0229 H   0  0
   -0.0346   -6.8547    0.0185 H   0  0
   -2.1487   -5.6364    0.0086 H   0  0
   -3.8089   -4.6578    0.0008 H   0  0
    0.0875    6.6958   -0.0505 H   0  0
   -2.0481    5.5158   -0.0481 H   0  0
   -3.7257    4.5673   -0.0462 H   0  0
   -5.8378    3.3457   -0.0436 H   0  0
   -5.8986   -3.3983   -0.0093 H   0  0
   -7.0898    1.2258   -0.0350 H   0  0
   -7.1122   -1.2562   -0.0223 H   0  0
   -0.5544    5.2304    1.0564 O   0  0
M  END

> <TOTAL ENERGY>
BIOVIA, TYPE=DOUBLE, VERSION=1                                                  
 -1913.69751093

> <BINDING ENERGY>
BIOVIA, TYPE=DOUBLE, VERSION=1                                                  
   -15.66151120

> <HOMO ENERGY>
BIOVIA, TYPE=DOUBLE, VERSION=1                                                  
    -0.17428501

> <LUMO ENERGY>
BIOVIA, TYPE=DOUBLE, VERSION=1                                                  
    -0.10671807

> <LUMO-HOMO ENERGY>
BIOVIA, TYPE=DOUBLE, VERSION=1                                                  
     0.06756694

> <OPERATION STATUS>
BIOVIA, TYPE=STATUS, VERSION=1                                                  
SUCCESS

$$$$
