Materials Studio SDF calculation
TCVAMP81A 

 67  0  0  0  0  0              1 V2000
    1.0027    0.4772    0.0000 C   0  0
   -0.2114    2.6364    0.0000 C   0  0
    3.4765    0.4705    0.0000 C   0  0
    2.2643    2.6067    0.0000 C   0  0
    4.7117    2.5833    0.0000 C   0  0
   -0.2231    1.2021    0.0000 C   0  0
    2.2508    1.1860    0.0000 C   0  0
    1.0376    3.3332    0.0000 C   0  0
    4.7225    1.1821    0.0000 C   0  0
    3.5143    3.3112    0.0000 C   0  0
   -3.9361    0.5293    0.0000 C   0  0
   -5.1349    2.6598    0.0000 C   0  0
   -1.4623    0.5004    0.0000 C   0  0
   -2.6913    2.6601    0.0000 C   0  0
   -5.1693    1.2441    0.0000 C   0  0
   -2.6945    1.2367    0.0000 C   0  0
   -3.9393    3.3403    0.0000 C   0  0
   -1.4306    3.3714    0.0000 C   0  0
   -1.3650    4.7881    0.0000 C   0  0
    1.0652    4.7585    0.0000 C   0  0
    3.5017    4.7429    0.0000 C   0  0
   -0.1611    5.4605    0.0000 C   0  0
    2.3237    5.4379    0.0000 C   0  0
    2.3239    6.5295    0.0000 H   0  0
   -0.2477   -1.6500    0.0000 C   0  0
    2.2327   -1.6703    0.0000 C   0  0
   -1.4735   -0.9252    0.0000 C   0  0
    0.9929   -0.9463    0.0000 C   0  0
    3.4707   -0.9555    0.0000 C   0  0
   -5.1999   -1.5875    0.0000 C   0  0
   -2.7252   -1.6332    0.0000 C   0  0
   -6.4151   -0.8437    0.0000 C   0  0
   -3.9505   -0.8985    0.0000 C   0  0
   -6.4006    0.5267    0.0000 C   0  0
    0.9756   -3.8136    0.0000 C   0  0
    3.4870   -3.7616    0.0000 C   0  0
   -0.2579   -3.0862    0.0000 C   0  0
    2.2392   -3.0923    0.0000 C   0  0
    4.6836   -3.0723    0.0000 C   0  0
   -4.0118   -3.7071    0.0000 C   0  0
   -1.5020   -3.7943    0.0000 C   0  0
   -5.1945   -3.0024    0.0000 C   0  0
   -2.7519   -3.0529    0.0000 C   0  0
    4.7097   -1.6616    0.0000 C   0  0
   -0.2798   -5.9029    0.0000 C   0  0
    5.9378   -0.9290    0.0000 C   0  0
    0.9319   -5.2189    0.0000 C   0  0
    5.9454    0.4382    0.0000 C   0  0
   -1.4800   -5.2018    0.0000 C   0  0
    4.4585    5.2689    0.0000 H   0  0
    3.5196   -4.8493    0.0000 H   0  0
    5.6627    3.1213    0.0000 H   0  0
    1.8542   -5.7967    0.0000 H   0  0
    5.6296   -3.6174    0.0000 H   0  0
    6.8890    0.9872    0.0000 O   0  0
    6.8759   -1.4873    0.0000 H   0  0
   -0.2875   -6.9935    0.0000 H   0  0
   -2.4116   -5.7639    0.0000 H   0  0
   -4.0579   -4.7943    0.0000 H   0  0
   -0.1445    6.5520    0.0000 H   0  0
   -2.2828    5.3727    0.0000 H   0  0
   -3.9622    4.4282    0.0000 H   0  0
   -6.0791    3.2078    0.0000 H   0  0
   -6.1493   -3.5320    0.0000 H   0  0
   -7.3345    1.0918    0.0000 H   0  0
   -7.3612   -1.3885    0.0000 H   0  0
    7.6890    1.3872    0.0000 H   0  0
M  END

> <TOTAL ENERGY>
BIOVIA, TYPE=DOUBLE, VERSION=1                                                  
 -1913.74734762

> <BINDING ENERGY>
BIOVIA, TYPE=DOUBLE, VERSION=1                                                  
   -15.71134789

> <HOMO ENERGY>
BIOVIA, TYPE=DOUBLE, VERSION=1                                                  
    -0.16630762

> <LUMO ENERGY>
BIOVIA, TYPE=DOUBLE, VERSION=1                                                  
    -0.10335900

> <LUMO-HOMO ENERGY>
BIOVIA, TYPE=DOUBLE, VERSION=1                                                  
     0.06294862

> <OPERATION STATUS>
BIOVIA, TYPE=STATUS, VERSION=1                                                  
SUCCESS

$$$$
