Materials Studio SDF calculation
TCVAMP81A 

 70  0  0  0  0  0              1 V2000
    1.0293    0.4421    0.0000 C   0  0
   -0.1807    2.6103    0.0000 C   0  0
    3.5124    0.4257    0.0000 C   0  0
    2.2880    2.5708    0.0000 C   0  0
    4.7401    2.5329    0.0000 C   0  0
   -0.1938    1.1735    0.0000 C   0  0
    2.2806    1.1410    0.0000 C   0  0
    1.0685    3.3143    0.0000 C   0  0
    4.7289    1.1611    0.0000 C   0  0
    3.5293    3.2694    0.0000 C   0  0
   -3.9107    0.5005    0.0000 C   0  0
   -5.1062    2.6336    0.0000 C   0  0
   -1.4353    0.4747    0.0000 C   0  0
   -2.6641    2.6294    0.0000 C   0  0
   -5.1431    1.2171    0.0000 C   0  0
   -2.6684    1.2070    0.0000 C   0  0
   -3.9113    3.3124    0.0000 C   0  0
   -1.4033    3.3355    0.0000 C   0  0
   -1.3388    4.7502    0.0000 C   0  0
    1.0948    4.7483    0.0000 C   0  0
    3.5361    4.6826    0.0000 C   0  0
   -0.1469    5.4343    0.0000 C   0  0
    2.3708    5.4272    0.0000 C   0  0
   -0.2305   -1.6794    0.0000 C   0  0
    2.2508   -1.7073    0.0000 C   0  0
   -1.4531   -0.9533    0.0000 C   0  0
    1.0134   -0.9814    0.0000 C   0  0
    3.4973   -1.0186    0.0000 C   0  0
   -5.1773   -1.6144    0.0000 C   0  0
   -2.7023   -1.6610    0.0000 C   0  0
   -6.3898   -0.8695    0.0000 C   0  0
   -3.9275   -0.9267    0.0000 C   0  0
   -6.3738    0.5016    0.0000 C   0  0
    0.9805   -3.8338    0.0000 C   0  0
    3.4519   -3.8644    0.0000 C   0  0
   -0.2517   -3.1138    0.0000 C   0  0
    2.2271   -3.1378    0.0000 C   0  0
    4.6779   -3.1582    0.0000 C   0  0
   -3.9941   -3.7377    0.0000 C   0  0
   -1.4872   -3.8205    0.0000 C   0  0
   -5.1730   -3.0314    0.0000 C   0  0
   -2.7303   -3.0849    0.0000 C   0  0
    4.6931   -1.7837    0.0000 C   0  0
   -0.2648   -5.9380    0.0000 C   0  0
    2.2123   -5.9670    0.0000 C   0  0
    0.9804   -5.2597    0.0000 C   0  0
    3.4113   -5.2949    0.0000 C   0  0
   -1.4497   -5.2413    0.0000 C   0  0
    4.4979    5.1923    0.0000 H   0  0
    5.6811    0.6351    0.0000 H   0  0
    5.6583   -1.2821    0.0000 H   0  0
    5.6109   -3.7188    0.0000 H   0  0
    2.1919   -7.0597    0.0000 H   0  0
   -0.2724   -7.0291    0.0000 H   0  0
   -2.3802   -5.8053    0.0000 H   0  0
   -4.0407   -4.8247    0.0000 H   0  0
   -0.1415    6.5196    0.0000 H   0  0
   -2.2569    5.3337    0.0000 H   0  0
   -3.9329    4.3998    0.0000 H   0  0
   -6.0493    3.1829    0.0000 H   0  0
   -6.1287   -3.5588    0.0000 H   0  0
   -7.3072    1.0669    0.0000 H   0  0
   -7.3369   -1.4121    0.0000 H   0  0
    5.6868    3.0755    0.0000 H   0  0
    4.6259   -5.9328    0.0000 O   0  0
    4.4690   -6.8922    0.0000 H   0  0
    2.4831    6.9102    0.0000 C   0  0
    1.5705    7.7254    0.0000 O   0  0
    3.7888    7.3410    0.0000 O   0  0
    3.7153    8.3164    0.0000 H   0  0
M  END

> <TOTAL ENERGY>
BIOVIA, TYPE=DOUBLE, VERSION=1                                                  
 -2102.19906744

> <BINDING ENERGY>
BIOVIA, TYPE=DOUBLE, VERSION=1                                                  
   -16.36912915

> <HOMO ENERGY>
BIOVIA, TYPE=DOUBLE, VERSION=1                                                  
    -0.17868875

> <LUMO ENERGY>
BIOVIA, TYPE=DOUBLE, VERSION=1                                                  
    -0.10805566

> <LUMO-HOMO ENERGY>
BIOVIA, TYPE=DOUBLE, VERSION=1                                                  
     0.07063309

> <OPERATION STATUS>
BIOVIA, TYPE=STATUS, VERSION=1                                                  
SUCCESS

$$$$
