Materials Studio SDF calculation
TCVAMP81A 

 75  0  0  0  0  0              1 V2000
    1.2462    0.4084   -0.0051 C   0  0
    0.0351    2.5494   -0.0017 C   0  0
    3.7068    0.4227   -0.0042 C   0  0
    2.4815    2.5284    0.0158 C   0  0
    4.9129    2.5176    0.0305 C   0  0
    0.0306    1.1223   -0.0030 C   0  0
    2.4801    1.1141    0.0011 C   0  0
    1.2659    3.2551    0.0135 C   0  0
    4.9061    1.1490    0.0130 C   0  0
    3.6997    3.2391    0.0300 C   0  0
   -3.6462    0.4381   -0.0446 C   0  0
   -4.8392    2.5233   -0.1710 C   0  0
   -1.1930    0.4192   -0.0041 C   0  0
   -2.4263    2.5526   -0.0508 C   0  0
   -4.8510    1.1375   -0.1550 C   0  0
   -2.4224    1.1381   -0.0260 C   0  0
   -3.6509    3.2195   -0.1087 C   0  0
   -1.1764    3.2628   -0.0188 C   0  0
   -1.1287    4.6630   -0.0069 C   0  0
    1.2798    4.6749    0.0229 C   0  0
    3.7035    4.6383    0.0426 C   0  0
    0.0504    5.3524    0.0156 C   0  0
    2.5361    5.3565    0.0388 C   0  0
    2.6324    6.8244    0.0496 C   0  0
    0.0179   -1.7039   -0.0055 C   0  0
    2.4749   -1.7126   -0.0247 C   0  0
   -1.1989   -0.9939   -0.0021 C   0  0
    1.2411   -1.0022   -0.0114 C   0  0
    3.7081   -1.0136   -0.0257 C   0  0
   -4.8650   -1.6817    0.1776 C   0  0
   -2.4355   -1.7044    0.0310 C   0  0
   -6.1359   -0.9226    0.3744 C   0  0
   -3.6542   -0.9962    0.0423 C   0  0
   -6.1225    0.3899   -0.3710 C   0  0
    1.2318   -3.8399   -0.0290 C   0  0
    3.6964   -3.8124   -0.0598 C   0  0
    0.0132   -3.1308   -0.0033 C   0  0
    2.4763   -3.1242   -0.0400 C   0  0
    4.8970   -3.1137   -0.0651 C   0  0
   -3.6811   -3.7690    0.1805 C   0  0
   -1.2103   -3.8434    0.0283 C   0  0
   -4.8629   -3.0632    0.2485 C   0  0
   -2.4530   -3.1163    0.0775 C   0  0
    4.9021   -1.7429   -0.0485 C   0  0
    0.0059   -5.9259   -0.0254 C   0  0
    2.4429   -6.0315   -0.0718 C   0  0
    1.2136   -5.2420   -0.0403 C   0  0
    3.7609   -5.2729   -0.0724 C   0  0
   -1.1825   -5.2400    0.0102 C   0  0
    1.7120    7.6203    0.0458 O   0  0
    3.9098    7.2593    0.0649 O   0  0
    3.8354    8.2380    0.0703 H   0  0
    4.6619    5.1610    0.0540 H   0  0
    5.8646    0.6220    0.0152 H   0  0
    6.0438    3.2469    0.0489 O   0  0
    6.8171    2.6534    0.0471 H   0  0
    5.8616   -1.2222   -0.0547 H   0  0
    5.8186   -3.7040   -0.0813 H   0  0
    4.8148   -5.8846   -0.0881 O   0  0
    2.4456   -7.2502   -0.0904 H   0  0
    0.0499   -7.0196   -0.0412 H   0  0
   -2.1173   -5.8038    0.0174 H   0  0
   -3.7174   -4.8592    0.2267 H   0  0
    0.0682    6.4438    0.0268 H   0  0
   -2.0585    5.2358   -0.0112 H   0  0
   -3.6781    4.3108   -0.1180 H   0  0
   -5.7913    3.0622   -0.2322 H   0  0
   -5.8155   -3.5899    0.3627 H   0  0
   -6.9763    0.9949   -0.0011 H   0  0
   -6.9836   -1.5122   -0.0154 H   0  0
   -6.3899   -0.7332    1.7518 O   0  0
   -6.2773    0.0626   -1.7413 O   0  0
   -5.5876   -0.3505    2.1559 H   0  0
   -5.9391    0.8057   -2.2724 H   0  0
    5.5148   -6.6846   -0.0881 H   0  0
M  END

> <TOTAL ENERGY>
BIOVIA, TYPE=DOUBLE, VERSION=1                                                  
 -2311.67585258

> <BINDING ENERGY>
BIOVIA, TYPE=DOUBLE, VERSION=1                                                  
   -19.06822812

> <HOMO ENERGY>
BIOVIA, TYPE=DOUBLE, VERSION=1                                                  
    -0.18572509

> <LUMO ENERGY>
BIOVIA, TYPE=DOUBLE, VERSION=1                                                  
    -0.11976266

> <LUMO-HOMO ENERGY>
BIOVIA, TYPE=DOUBLE, VERSION=1                                                  
     0.06596243

> <OPERATION STATUS>
BIOVIA, TYPE=STATUS, VERSION=1                                                  
SUCCESS

$$$$
