Materials Studio SDF calculation
TCVAMP81A 

 66  0  0  0  0  0              1 V2000
    0.9035   -1.2947    0.0000 C   0  0
   -0.3035    0.8640    0.0000 C   0  0
    3.3800   -1.3316    0.0000 C   0  0
    2.1643    0.8233    0.0000 C   0  0
    4.6376    0.7736    0.0000 C   0  0
   -0.3266   -0.5679    0.0000 C   0  0
    2.1433   -0.5980    0.0000 C   0  0
    0.9343    1.5560    0.0000 C   0  0
    4.5960   -0.6277    0.0000 C   0  0
    3.4085    1.5119    0.0000 C   0  0
   -4.0430   -1.2396    0.0000 C   0  0
   -5.2212    0.8981    0.0000 C   0  0
   -1.5618   -1.2684    0.0000 C   0  0
   -2.7742    0.8863    0.0000 C   0  0
   -5.2384   -0.4792    0.0000 C   0  0
   -2.7997   -0.5455    0.0000 C   0  0
   -4.0000    1.6121    0.0000 C   0  0
   -1.5314    1.5963    0.0000 C   0  0
   -1.5189    3.0240    0.0000 C   0  0
    0.9571    2.9863    0.0000 C   0  0
    3.4355    2.9368    0.0000 C   0  0
   -0.2609    3.7262    0.0000 C   0  0
    2.2131    3.6724    0.0000 C   0  0
   -0.3424   -3.4155    0.0000 C   0  0
    2.1351   -3.4464    0.0000 C   0  0
   -1.5733   -2.6959    0.0000 C   0  0
    0.8889   -2.7193    0.0000 C   0  0
    3.3347   -2.7510    0.0000 C   0  0
   -5.2477   -3.4429    0.0000 C   0  0
   -2.8139   -3.4014    0.0000 C   0  0
   -4.0566   -2.6943    0.0000 C   0  0
   -0.3534   -4.8578    0.0000 C   0  0
   -4.0333   -5.5367    0.0000 C   0  0
   -1.5653   -5.5286    0.0000 C   0  0
   -5.2352   -4.8410    0.0000 C   0  0
   -2.8066   -4.8380    0.0000 C   0  0
   -3.9617    3.0333    0.0000 C   0  0
   -2.7692    3.7105    0.0000 C   0  0
   -0.1820    5.1497    0.0000 C   0  0
    2.2528    5.0979    0.0000 C   0  0
    1.0225    5.8098    0.0000 C   0  0
    4.6842    3.6262    0.0000 C   0  0
    4.6885    5.0454    0.0000 C   0  0
    3.5102    5.7605    0.0000 C   0  0
    5.8729    1.4960    0.0000 C   0  0
    5.8931    2.8656    0.0000 C   0  0
   -4.0212   -6.6279    0.0000 H   0  0
   -1.5750   -6.6209    0.0000 H   0  0
    0.9060   -5.5572    0.0000 C   0  0
    2.0901   -4.8860    0.0000 C   0  0
    4.2766   -3.3045    0.0000 H   0  0
    5.5341   -1.1873    0.0000 H   0  0
    6.8065    0.9303    0.0000 H   0  0
    6.8449    3.4008    0.0000 H   0  0
    5.6492    5.5645    0.0000 H   0  0
    3.5270    6.8519    0.0000 H   0  0
    1.0478    6.9012    0.0000 H   0  0
   -1.0957    5.7408    0.0000 H   0  0
   -2.7882    4.7985    0.0000 H   0  0
   -4.9062    3.5808    0.0000 H   0  0
   -6.1590    1.4569    0.0000 H   0  0
   -6.2027   -0.9847    0.0000 H   0  0
   -6.2122   -2.9374    0.0000 H   0  0
   -6.1820   -5.3832    0.0000 H   0  0
    3.0374   -5.4288    0.0000 H   0  0
    0.8869   -6.6486    0.0000 H   0  0
M  END

> <TOTAL ENERGY>
BIOVIA, TYPE=DOUBLE, VERSION=1                                                  
 -1838.55069708

> <BINDING ENERGY>
BIOVIA, TYPE=DOUBLE, VERSION=1                                                  
   -15.51540747

> <HOMO ENERGY>
BIOVIA, TYPE=DOUBLE, VERSION=1                                                  
    -0.16221674

> <LUMO ENERGY>
BIOVIA, TYPE=DOUBLE, VERSION=1                                                  
    -0.11308400

> <LUMO-HOMO ENERGY>
BIOVIA, TYPE=DOUBLE, VERSION=1                                                  
     0.04913275

> <OPERATION STATUS>
BIOVIA, TYPE=STATUS, VERSION=1                                                  
SUCCESS

$$$$
