Materials Studio SDF calculation
TCVAMP81A 

 66  0  0  0  0  0              1 V2000
    0.9171   -1.3097   -0.0000 C   0  0
   -0.2970    0.8494   -0.0132 C   0  0
    3.3909   -1.3165    0.0029 C   0  0
    2.1787    0.8197   -0.0102 C   0  0
    4.6261    0.7963   -0.0072 C   0  0
   -0.3087   -0.5849   -0.0054 C   0  0
    2.1652   -0.6010   -0.0025 C   0  0
    0.9520    1.5462   -0.0155 C   0  0
    4.6369   -0.6049    0.0004 C   0  0
    3.4287    1.5242   -0.0125 C   0  0
   -4.0217   -1.2577   -0.0060 C   0  0
   -5.2205    0.8727   -0.0190 C   0  0
   -1.5479   -1.2865   -0.0030 C   0  0
   -2.7770    0.8731   -0.0162 C   0  0
   -5.2549   -0.5429   -0.0113 C   0  0
   -2.7801   -0.5503   -0.0084 C   0  0
   -4.0249    1.5533   -0.0213 C   0  0
   -1.5162    1.5843   -0.0186 C   0  0
   -1.4506    3.0011   -0.0262 C   0  0
    0.9796    2.9715   -0.0232 C   0  0
    3.4161    2.9559   -0.0203 C   0  0
   -0.2467    3.6735   -0.0285 C   0  0
    2.2381    3.6509   -0.0255 C   0  0
   -0.3333   -3.4370    0.0101 C   0  0
    2.1471   -3.4572    0.0131 C   0  0
   -1.5591   -2.7122    0.0047 C   0  0
    0.9073   -2.7332    0.0077 C   0  0
    3.3851   -2.7425    0.0106 C   0  0
   -5.2855   -3.3745    0.0040 C   0  0
   -2.8108   -3.4201    0.0071 C   0  0
   -4.0361   -2.6855    0.0017 C   0  0
   -0.3435   -4.8731    0.0179 C   0  0
   -4.0974   -5.4941    0.0169 C   0  0
   -1.5876   -5.5812    0.0203 C   0  0
   -5.2801   -4.7894    0.0117 C   0  0
   -2.8375   -4.8398    0.0148 C   0  0
   -4.0506    3.0011   -0.0262 C   0  0
   -2.8467    3.6735   -0.0285 C   0  0
   -0.2467    5.0735   -0.0285 C   0  0
    2.2381    5.0509   -0.0255 C   0  0
    0.9796    5.9715   -0.0232 C   0  0
    4.6381    3.6509   -0.0255 C   0  0
    4.6381    5.0509   -0.0255 C   0  0
    3.3796    5.9715   -0.0232 C   0  0
    5.8900    1.3995    0.0232 C   0  0
    5.9536    2.7208    0.0208 C   0  0
   -4.0974   -6.4941    0.0169 H   0  0
   -1.4974   -6.4941    0.0169 H   0  0
    0.9026   -5.4941    0.0169 C   0  0
    2.1026   -4.8941    0.0169 C   0  0
    4.3026   -3.2941    0.0169 H   0  0
    5.5026   -1.0941    0.0169 H   0  0
    6.7026    0.9059    0.0169 H   0  0
    6.9026    3.1059    0.0169 H   0  0
    5.5026    5.5059    0.0169 H   0  0
    3.3026    6.9059    0.0169 H   0  0
    1.1026    6.9059    0.0169 H   0  0
   -0.8974    5.9059    0.0169 H   0  0
   -2.8974    4.7059    0.0169 H   0  0
   -4.6974    3.7059    0.0169 H   0  0
   -6.0974    1.3059    0.0169 H   0  0
   -6.0974   -0.8941    0.0169 H   0  0
   -6.0855   -2.9745    0.0040 H   0  0
   -6.0855   -5.3745    0.0040 H   0  0
    2.9026   -5.4941    0.0169 H   0  0
    0.9026   -6.4941    0.0169 H   0  0
M  END

> <TOTAL ENERGY>
BIOVIA, TYPE=DOUBLE, VERSION=1                                                  
 -1838.55069611

> <BINDING ENERGY>
BIOVIA, TYPE=DOUBLE, VERSION=1                                                  
   -15.51540651

> <HOMO ENERGY>
BIOVIA, TYPE=DOUBLE, VERSION=1                                                  
    -0.16221676

> <LUMO ENERGY>
BIOVIA, TYPE=DOUBLE, VERSION=1                                                  
    -0.11308436

> <LUMO-HOMO ENERGY>
BIOVIA, TYPE=DOUBLE, VERSION=1                                                  
     0.04913240

> <OPERATION STATUS>
BIOVIA, TYPE=STATUS, VERSION=1                                                  
SUCCESS

$$$$
