Materials Studio SDF calculation
TCVAMP81A 

 67  0  0  0  0  0              1 V2000
    1.2389    0.4757    0.0000 C   0  0
    0.0248    2.6348    0.0000 C   0  0
    3.7126    0.4689    0.0000 C   0  0
    2.5004    2.6052    0.0000 C   0  0
    4.9479    2.5817    0.0000 C   0  0
    0.0130    1.2005    0.0000 C   0  0
    2.4870    1.1844    0.0000 C   0  0
    1.2738    3.3316    0.0000 C   0  0
    4.9587    1.1805    0.0000 C   0  0
    3.7505    3.3096    0.0000 C   0  0
   -3.6999    0.5277    0.0000 C   0  0
   -4.8987    2.6582    0.0000 C   0  0
   -1.2261    0.4989    0.0000 C   0  0
   -2.4552    2.6586    0.0000 C   0  0
   -4.9331    1.2425    0.0000 C   0  0
   -2.4583    1.2351    0.0000 C   0  0
   -3.7031    3.3387    0.0000 C   0  0
   -1.1944    3.3698    0.0000 C   0  0
   -1.1288    4.7865    0.0000 C   0  0
    1.3014    4.7570    0.0000 C   0  0
    3.7379    4.7413    0.0000 C   0  0
    0.0751    5.4590    0.0000 C   0  0
    2.5598    5.4364    0.0000 C   0  0
    2.5601    6.5280    0.0000 H   0  0
   -0.0115   -1.6516    0.0000 C   0  0
    2.4689   -1.6718    0.0000 C   0  0
   -1.2373   -0.9268    0.0000 C   0  0
    1.2290   -0.9479    0.0000 C   0  0
    3.7069   -0.9571    0.0000 C   0  0
   -4.9637   -1.5891    0.0000 C   0  0
   -2.4890   -1.6347    0.0000 C   0  0
   -6.1789   -0.8452    0.0000 C   0  0
   -3.7143   -0.9000    0.0000 C   0  0
   -6.1644    0.5251    0.0000 C   0  0
    1.2118   -3.8151    0.0000 C   0  0
    3.7232   -3.7631    0.0000 C   0  0
   -0.0217   -3.0877    0.0000 C   0  0
    2.4754   -3.0938    0.0000 C   0  0
    4.9197   -3.0739    0.0000 C   0  0
   -3.7757   -3.7087    0.0000 C   0  0
   -1.2659   -3.7959    0.0000 C   0  0
   -4.9583   -3.0040    0.0000 C   0  0
   -2.5157   -3.0544    0.0000 C   0  0
    4.9459   -1.6632    0.0000 C   0  0
   -0.0436   -5.9045    0.0000 C   0  0
    6.1739   -0.9306    0.0000 C   0  0
    1.1681   -5.2204    0.0000 C   0  0
    6.1816    0.4366    0.0000 C   0  0
   -1.2439   -5.2034    0.0000 C   0  0
    4.6947    5.2673    0.0000 H   0  0
    3.7557   -4.8509    0.0000 H   0  0
    5.8989    3.1197    0.0000 H   0  0
    2.0904   -5.7983    0.0000 H   0  0
    5.8658   -3.6190    0.0000 H   0  0
    7.1251    0.9856    0.0000 H   0  0
    7.1121   -1.4889    0.0000 H   0  0
   -0.0513   -6.9951    0.0000 H   0  0
   -2.1754   -5.7654    0.0000 H   0  0
   -3.8217   -4.7959    0.0000 H   0  0
    0.0917    6.5504    0.0000 H   0  0
   -2.0466    5.3711    0.0000 H   0  0
   -3.7260    4.4267    0.0000 H   0  0
   -5.8430    3.2062    0.0000 H   0  0
   -5.9131   -3.5336    0.0000 H   0  0
   -7.0984    1.0903    0.0000 O   0  0
   -7.1250   -1.3901    0.0000 H   0  0
   -7.8984    1.4903    0.0000 H   0  0
M  END

> <TOTAL ENERGY>
BIOVIA, TYPE=DOUBLE, VERSION=1                                                  
 -1913.74707699

> <BINDING ENERGY>
BIOVIA, TYPE=DOUBLE, VERSION=1                                                  
   -15.71107726

> <HOMO ENERGY>
BIOVIA, TYPE=DOUBLE, VERSION=1                                                  
    -0.16746523

> <LUMO ENERGY>
BIOVIA, TYPE=DOUBLE, VERSION=1                                                  
    -0.10389179

> <LUMO-HOMO ENERGY>
BIOVIA, TYPE=DOUBLE, VERSION=1                                                  
     0.06357344

> <OPERATION STATUS>
BIOVIA, TYPE=STATUS, VERSION=1                                                  
SUCCESS

$$$$
