Materials Studio SDF calculation
TCVAMP81A 

 67  0  0  0  0  0              1 V2000
    1.1037    0.5748   -0.0144 C   0  0
   -0.1104    2.7339   -0.0275 C   0  0
    3.5775    0.5681   -0.0115 C   0  0
    2.3653    2.7043   -0.0245 C   0  0
    4.8127    2.6809   -0.0215 C   0  0
   -0.1221    1.2997   -0.0197 C   0  0
    2.3518    1.2836   -0.0168 C   0  0
    1.1387    3.4307   -0.0298 C   0  0
    4.8235    1.2797   -0.0139 C   0  0
    3.6153    3.4088   -0.0268 C   0  0
   -3.8350    0.6268   -0.0203 C   0  0
   -5.0338    2.7573   -0.0333 C   0  0
   -1.3613    0.5980   -0.0173 C   0  0
   -2.5903    2.7577   -0.0305 C   0  0
   -5.0683    1.3416   -0.0257 C   0  0
   -2.5935    1.3342   -0.0228 C   0  0
   -3.8382    3.4378   -0.0356 C   0  0
   -1.3295    3.4689   -0.0329 C   0  0
   -1.2639    4.8856   -0.0405 C   0  0
    1.1663    4.8561   -0.0375 C   0  0
    3.6028    4.8404   -0.0346 C   0  0
   -0.0600    5.5580   -0.0428 C   0  0
    2.4247    5.5355   -0.0398 C   0  0
    2.4249    6.6271   -0.0457 H   0  0
   -0.1467   -1.5524   -0.0042 C   0  0
    2.3337   -1.5726   -0.0013 C   0  0
   -1.3725   -0.8276   -0.0096 C   0  0
    1.0939   -0.8487   -0.0066 C   0  0
    3.5717   -0.8579   -0.0037 C   0  0
   -5.0989   -1.4899   -0.0103 C   0  0
   -2.6241   -1.5356   -0.0072 C   0  0
   -6.3141   -0.7461   -0.0157 C   0  0
   -3.8495   -0.8009   -0.0126 C   0  0
   -6.2995    0.6243   -0.0232 C   0  0
    1.0766   -3.7159    0.0089 C   0  0
    3.5880   -3.6639    0.0116 C   0  0
   -0.1568   -2.9885    0.0036 C   0  0
    2.3402   -2.9946    0.0065 C   0  0
    4.7846   -2.9746    0.0092 C   0  0
   -3.9108   -3.6095    0.0026 C   0  0
   -1.4010   -3.6967    0.0060 C   0  0
   -5.0934   -2.9048   -0.0026 C   0  0
   -2.6509   -2.9552    0.0005 C   0  0
    4.8107   -1.5639    0.0016 C   0  0
   -0.1787   -5.8052    0.0188 C   0  0
    6.0388   -0.8313   -0.0010 C   0  0
    1.0329   -5.1212    0.0165 C   0  0
    6.0464    0.5358   -0.0084 C   0  0
   -1.3790   -5.1041    0.0136 C   0  0
    4.5595    5.3664   -0.0364 H   0  0
    3.6206   -4.7516    0.0175 H   0  0
    5.7637    3.2189   -0.0233 H   0  0
    1.9553   -5.6990    0.0207 H   0  0
    5.7306   -3.5197    0.0132 H   0  0
    6.9900    1.0848   -0.0103 H   0  0
    6.9770   -1.3897    0.0031 H   0  0
   -0.1865   -6.8958    0.0248 H   0  0
   -2.3106   -5.6662    0.0156 H   0  0
   -3.9568   -4.6967    0.0084 H   0  0
   -0.0435    6.6495   -0.0487 H   0  0
   -2.1817    5.4702   -0.0448 H   0  0
   -3.8612    4.5257   -0.0416 H   0  0
   -5.9781    3.3053   -0.0374 H   0  0
   -6.0483   -3.4344   -0.0008 H   0  0
   -7.2335    1.1894   -0.0273 H   0  0
   -7.2602   -1.2909   -0.0139 H   0  0
    1.0212   -5.0552    0.8538 H   0  0
M  END

> <TOTAL ENERGY>
BIOVIA, TYPE=DOUBLE, VERSION=1                                                  
 -1839.12603413

> <BINDING ENERGY>
BIOVIA, TYPE=DOUBLE, VERSION=1                                                  
   -15.59105507

> <HOMO ENERGY>
BIOVIA, TYPE=DOUBLE, VERSION=1                                                  
    -0.17725431

> <LUMO ENERGY>
BIOVIA, TYPE=DOUBLE, VERSION=1                                                  
    -0.13461551

> <LUMO-HOMO ENERGY>
BIOVIA, TYPE=DOUBLE, VERSION=1                                                  
     0.04263880

> <OPERATION STATUS>
BIOVIA, TYPE=STATUS, VERSION=1                                                  
SUCCESS

$$$$
