Materials Studio SDF calculation
TCVAMP81A 

 73  0  0  0  0  0              1 V2000
    1.4383    0.3467   -0.0065 C   0  0
    0.2339    2.5186   -0.0036 C   0  0
    3.9222    0.3272   -0.0130 C   0  0
    2.7024    2.4735    0.0128 C   0  0
    5.1535    2.4321    0.0173 C   0  0
    0.2167    1.0780   -0.0060 C   0  0
    2.6918    1.0439   -0.0037 C   0  0
    1.4846    3.2195    0.0155 C   0  0
    5.1396    1.0598   -0.0030 C   0  0
    3.9446    3.1698    0.0250 C   0  0
   -3.5003    0.4161   -0.0666 C   0  0
   -4.6811    2.5285   -0.2259 C   0  0
   -1.0241    0.3799   -0.0073 C   0  0
   -2.2503    2.5420   -0.0683 C   0  0
   -4.7073    1.1303   -0.1993 C   0  0
   -2.2587    1.1141   -0.0401 C   0  0
   -3.4815    3.2213   -0.1478 C   0  0
   -0.9821    3.2474   -0.0213 C   0  0
   -0.9178    4.6590    0.0083 C   0  0
    1.5140    4.6537    0.0347 C   0  0
    3.9546    4.5842    0.0452 C   0  0
    0.2759    5.3421    0.0386 C   0  0
    2.7923    5.3308    0.0509 C   0  0
    0.1780   -1.7751    0.0024 C   0  0
    2.6584   -1.8042   -0.0232 C   0  0
   -1.0435   -1.0485    0.0029 C   0  0
    1.4210   -1.0776   -0.0091 C   0  0
    3.9051   -1.1181   -0.0299 C   0  0
   -4.7467   -1.7124    0.1854 C   0  0
   -2.2945   -1.7565    0.0420 C   0  0
   -6.0391   -0.9463    0.3274 C   0  0
   -3.5221   -1.0326    0.0419 C   0  0
   -6.0009    0.3903   -0.4155 C   0  0
    1.3915   -3.9338   -0.0167 C   0  0
    3.8549   -3.9703   -0.0567 C   0  0
    0.1584   -3.2136    0.0108 C   0  0
    2.6353   -3.2337   -0.0338 C   0  0
    5.0792   -3.2590   -0.0666 C   0  0
   -3.5660   -3.8268    0.2365 C   0  0
   -1.0710   -3.9219    0.0507 C   0  0
   -4.7483   -3.1050    0.2925 C   0  0
   -2.3197   -3.1832    0.1042 C   0  0
    5.1004   -1.8847   -0.0515 C   0  0
    0.1462   -6.0384   -0.0025 C   0  0
    2.6260   -6.0675   -0.0505 C   0  0
    1.3885   -5.3608   -0.0234 C   0  0
    3.8191   -5.3949   -0.0673 C   0  0
   -1.0390   -5.3406    0.0359 C   0  0
    4.9179    5.0909    0.0559 H   0  0
    6.0908    0.5322   -0.0081 H   0  0
    6.1012    2.9726    0.0268 H   0  0
    6.0662   -1.3841   -0.0594 H   0  0
    6.0154   -3.8195   -0.0848 H   0  0
    4.7653   -5.9384   -0.0870 H   0  0
    2.6027   -7.1584   -0.0575 H   0  0
    0.1398   -7.1294   -0.0173 H   0  0
   -1.9717   -5.9008    0.0450 H   0  0
   -3.6162   -4.9113    0.3118 H   0  0
    0.2831    6.4272    0.0628 H   0  0
   -1.8356    5.2431    0.0131 H   0  0
   -3.5071    4.3084   -0.1684 H   0  0
   -5.6224    3.0767   -0.3110 H   0  0
   -5.6987   -3.6258    0.4236 H   0  0
   -6.8447    1.0017   -0.0511 H   0  0
   -6.8652   -1.5320   -0.1006 H   0  0
   -6.1833    0.0751   -1.8143 O   0  0
   -5.7610    0.7837   -2.3281 H   0  0
   -6.3832   -0.7660    1.7143 O   0  0
   -5.5847   -0.4518    2.1740 H   0  0
    2.9070    6.8139    0.0739 C   0  0
    1.9954    7.6297    0.0840 O   0  0
    4.2131    7.2418    0.0834 O   0  0
    4.1433    8.2173    0.0972 H   0  0
M  END

> <TOTAL ENERGY>
BIOVIA, TYPE=DOUBLE, VERSION=1                                                  
 -2178.55064931

> <BINDING ENERGY>
BIOVIA, TYPE=DOUBLE, VERSION=1                                                  
   -16.72062200

> <HOMO ENERGY>
BIOVIA, TYPE=DOUBLE, VERSION=1                                                  
    -0.18280741

> <LUMO ENERGY>
BIOVIA, TYPE=DOUBLE, VERSION=1                                                  
    -0.11586570

> <LUMO-HOMO ENERGY>
BIOVIA, TYPE=DOUBLE, VERSION=1                                                  
     0.06694171

> <OPERATION STATUS>
BIOVIA, TYPE=STATUS, VERSION=1                                                  
SUCCESS

$$$$
