Materials Studio SDF calculation
TCVAMP81A 

 73  0  0  0  0  0              1 V2000
    1.1235    0.3901   -0.0032 C   0  0
   -0.0750    2.5588   -0.0391 C   0  0
    3.6026    0.3695    0.0333 C   0  0
    2.3915    2.5135    0.0575 C   0  0
    4.8374    2.4700    0.1290 C   0  0
   -0.0954    1.1225   -0.0322 C   0  0
    2.3742    1.0867    0.0253 C   0  0
    1.1733    3.2604    0.0263 C   0  0
    4.8175    1.0944    0.0892 C   0  0
    3.6269    3.2182    0.1150 C   0  0
   -3.8173    0.4530   -0.0835 C   0  0
   -4.9924    2.5699   -0.2282 C   0  0
   -1.3398    0.4246   -0.0412 C   0  0
   -2.5575    2.5793   -0.1457 C   0  0
   -5.0305    1.1763   -0.1500 C   0  0
   -2.5703    1.1564   -0.0936 C   0  0
   -3.7895    3.2579   -0.2220 C   0  0
   -1.2922    3.2861   -0.0968 C   0  0
   -1.2270    4.6964   -0.0856 C   0  0
    1.2002    4.6927    0.0613 C   0  0
    3.6401    4.6272    0.1611 C   0  0
   -0.0348    5.3795   -0.0057 C   0  0
    2.4726    5.3681    0.1447 C   0  0
   -0.1397   -1.7274    0.0343 C   0  0
    2.3381   -1.7604    0.0058 C   0  0
   -1.3602   -0.9989    0.0115 C   0  0
    1.1037   -1.0324    0.0111 C   0  0
    3.5848   -1.0741   -0.0081 C   0  0
   -5.0963   -1.6688    0.0668 C   0  0
   -2.6136   -1.7030    0.0517 C   0  0
   -6.2885   -0.9787    0.0177 C   0  0
   -3.8265   -0.9769    0.0109 C   0  0
   -6.3764    0.4896   -0.1692 C   0  0
    1.0659   -3.8809    0.0674 C   0  0
    3.5359   -3.9184   -0.0066 C   0  0
   -0.1613   -3.1594    0.0814 C   0  0
    2.3131   -3.1886    0.0182 C   0  0
    4.7609   -3.2157   -0.0517 C   0  0
   -3.8985   -3.7889    0.2152 C   0  0
   -1.4019   -3.8641    0.1410 C   0  0
   -5.0745   -3.0966    0.1849 C   0  0
   -2.6326   -3.1333    0.1382 C   0  0
    4.7768   -1.8410   -0.0486 C   0  0
   -0.1797   -5.9814    0.1735 C   0  0
    2.2894   -6.0146    0.0743 C   0  0
    1.0643   -5.3061    0.1048 C   0  0
    3.4917   -5.3458    0.0211 C   0  0
   -1.3627   -5.2868    0.1929 C   0  0
    4.6009    5.1354    0.2207 H   0  0
    5.7730    0.5642    0.1096 H   0  0
    5.7452   -1.3402   -0.0837 H   0  0
    5.6944   -3.7798   -0.0846 H   0  0
    2.2679   -7.1102    0.1002 H   0  0
   -0.1856   -7.0748    0.2083 H   0  0
   -2.2933   -5.8529    0.2437 H   0  0
   -3.9397   -4.8749    0.3031 H   0  0
   -0.0352    6.4668    0.0192 H   0  0
   -2.1457    5.2832   -0.1326 H   0  0
   -3.8149    4.3466   -0.2761 H   0  0
   -5.9351    3.1194   -0.3012 H   0  0
   -6.0298   -3.6256    0.2467 H   0  0
   -7.0272    0.9424    0.6039 H   0  0
   -7.2341   -1.5280    0.0603 H   0  0
   -7.1162    0.7987   -1.3965 O   0  0
   -6.5932    0.3909   -2.1216 H   0  0
    2.5829    6.8457    0.2319 C   0  0
    1.6789    7.6501    0.4183 O   0  0
    3.8769    7.2882    0.0892 O   0  0
    3.7965    8.2649    0.2008 H   0  0
    6.0034    3.1880    0.1846 O   0  0
    6.7494    2.5519    0.1903 H   0  0
    4.7025   -5.9921   -0.0069 O   0  0
    4.5277   -6.9566    0.0179 H   0  0
M  END

> <TOTAL ENERGY>
BIOVIA, TYPE=DOUBLE, VERSION=1                                                  
 -2253.12044494

> <BINDING ENERGY>
BIOVIA, TYPE=DOUBLE, VERSION=1                                                  
   -16.78939696

> <HOMO ENERGY>
BIOVIA, TYPE=DOUBLE, VERSION=1                                                  
    -0.14492658

> <LUMO ENERGY>
BIOVIA, TYPE=DOUBLE, VERSION=1                                                  
    -0.10746910

> <LUMO-HOMO ENERGY>
BIOVIA, TYPE=DOUBLE, VERSION=1                                                  
     0.03745748

> <OPERATION STATUS>
BIOVIA, TYPE=STATUS, VERSION=1                                                  
SUCCESS

$$$$
