Materials Studio SDF calculation
TCVAMP81A 

 67  0  0  0  0  0              1 V2000
    1.1116    0.5822   -0.0172 C   0  0
   -0.1025    2.7413   -0.0303 C   0  0
    3.5854    0.5754   -0.0143 C   0  0
    2.3732    2.7117   -0.0273 C   0  0
    4.8206    2.6882   -0.0244 C   0  0
   -0.1142    1.3071   -0.0226 C   0  0
    2.3597    1.2909   -0.0196 C   0  0
    1.1466    3.4381   -0.0327 C   0  0
    4.8314    1.2871   -0.0167 C   0  0
    3.6232    3.4161   -0.0297 C   0  0
   -3.8271    0.6342   -0.0232 C   0  0
   -5.0259    2.7647   -0.0362 C   0  0
   -1.3534    0.6054   -0.0202 C   0  0
   -2.5824    2.7650   -0.0333 C   0  0
   -5.0604    1.3490   -0.0285 C   0  0
   -2.5856    1.3416   -0.0256 C   0  0
   -3.8303    3.4452   -0.0385 C   0  0
   -1.3216    3.4763   -0.0357 C   0  0
   -1.2560    4.8930   -0.0434 C   0  0
    1.1742    4.8635   -0.0404 C   0  0
    3.6107    4.8478   -0.0375 C   0  0
   -0.0521    5.5654   -0.0456 C   0  0
    2.4326    5.5428   -0.0426 C   0  0
    2.4328    6.6344   -0.0486 H   0  0
   -0.1388   -1.5450   -0.0071 C   0  0
    2.3416   -1.5653   -0.0041 C   0  0
   -1.3646   -0.8202   -0.0124 C   0  0
    1.1018   -0.8413   -0.0095 C   0  0
    3.5796   -0.8505   -0.0066 C   0  0
   -5.0910   -1.4825   -0.0132 C   0  0
   -2.6163   -1.5282   -0.0100 C   0  0
   -6.3062   -0.7387   -0.0186 C   0  0
   -3.8416   -0.7935   -0.0155 C   0  0
   -6.2917    0.6316   -0.0260 C   0  0
    1.0845   -3.7085    0.0061 C   0  0
    3.5959   -3.6565    0.0087 C   0  0
   -0.1490   -2.9811    0.0007 C   0  0
    2.3481   -2.9872    0.0036 C   0  0
    4.7925   -2.9673    0.0063 C   0  0
   -3.9029   -3.6021   -0.0003 C   0  0
   -1.3931   -3.6893    0.0031 C   0  0
   -5.0856   -2.8974   -0.0055 C   0  0
   -2.6430   -2.9478   -0.0024 C   0  0
    4.8186   -1.5566   -0.0013 C   0  0
   -0.1708   -5.7979    0.0160 C   0  0
    6.0467   -0.8240   -0.0039 C   0  0
    1.0408   -5.1138    0.0137 C   0  0
    6.0543    0.5432   -0.0113 C   0  0
   -1.3711   -5.0968    0.0108 C   0  0
    4.5674    5.3738   -0.0392 H   0  0
    3.6285   -4.7443    0.0147 H   0  0
    5.7716    3.2263   -0.0262 H   0  0
    1.9631   -5.6916    0.0179 H   0  0
    5.7385   -3.5123    0.0104 H   0  0
    6.9979    1.0922   -0.0132 H   0  0
    6.9848   -1.3823    0.0003 H   0  0
   -0.1786   -6.8884    0.0219 H   0  0
   -2.3027   -5.6588    0.0128 H   0  0
   -3.9490   -4.6893    0.0056 H   0  0
   -0.0356    6.6569   -0.0515 H   0  0
   -2.1739    5.4776   -0.0476 H   0  0
   -3.8533    4.5331   -0.0444 H   0  0
   -5.9702    3.3127   -0.0402 H   0  0
   -6.0404   -3.4270   -0.0037 H   0  0
   -7.2256    1.1967   -0.0302 H   0  0
   -7.2523   -1.2836   -0.0167 H   0  0
    0.5005   -5.5411    1.0421 O   0  0
M  END

> <TOTAL ENERGY>
BIOVIA, TYPE=DOUBLE, VERSION=1                                                  
 -1913.67891885

> <BINDING ENERGY>
BIOVIA, TYPE=DOUBLE, VERSION=1                                                  
   -15.64291912

> <HOMO ENERGY>
BIOVIA, TYPE=DOUBLE, VERSION=1                                                  
    -0.16688814

> <LUMO ENERGY>
BIOVIA, TYPE=DOUBLE, VERSION=1                                                  
    -0.11549816

> <LUMO-HOMO ENERGY>
BIOVIA, TYPE=DOUBLE, VERSION=1                                                  
     0.05138998

> <OPERATION STATUS>
BIOVIA, TYPE=STATUS, VERSION=1                                                  
SUCCESS

$$$$
