Materials Studio SDF calculation
TCVAMP81A 

 67  0  0  0  0  0              1 V2000
    1.2120    0.4808   -0.0278 C   0  0
   -0.0001    2.6390   -0.0538 C   0  0
    3.6870    0.4732   -0.0150 C   0  0
    2.4735    2.6090   -0.0468 C   0  0
    4.9214    2.5862   -0.0320 C   0  0
   -0.0149    1.2054   -0.0347 C   0  0
    2.4596    1.1887   -0.0302 C   0  0
    1.2461    3.3348   -0.0620 C   0  0
    4.9320    1.1849   -0.0135 C   0  0
    3.7237    3.3142   -0.0488 C   0  0
   -3.7238    0.5417    0.0137 C   0  0
   -4.9205    2.7019   -0.0242 C   0  0
   -1.2550    0.5032   -0.0217 C   0  0
   -2.4756    2.6729   -0.0483 C   0  0
   -4.9789    1.2689    0.0195 C   0  0
   -2.4932    1.2390   -0.0193 C   0  0
   -3.7273    3.3639   -0.0554 C   0  0
   -1.2255    3.3747   -0.0668 C   0  0
   -1.1549    4.7965   -0.0977 C   0  0
    1.2759    4.7622   -0.0856 C   0  0
    3.7117    4.7446   -0.0686 C   0  0
    0.0477    5.4650   -0.1059 C   0  0
    2.5313    5.4398   -0.0880 C   0  0
    2.5319    6.5314   -0.1043 H   0  0
   -0.0359   -1.6467   -0.0140 C   0  0
    2.4444   -1.6674   -0.0088 C   0  0
   -1.2656   -0.9206   -0.0106 C   0  0
    1.2025   -0.9442   -0.0178 C   0  0
    3.6821   -0.9521   -0.0016 C   0  0
   -4.9797   -1.5914    0.0778 C   0  0
   -2.5168   -1.6272    0.0097 C   0  0
   -6.2972   -0.8647    0.1332 C   0  0
   -3.7467   -0.8942    0.0352 C   0  0
   -6.1872    0.6122    0.0693 C   0  0
    1.1916   -3.8099   -0.0275 C   0  0
    3.7016   -3.7583    0.0192 C   0  0
   -0.0423   -3.0839   -0.0192 C   0  0
    2.4531   -3.0885   -0.0060 C   0  0
    4.8967   -3.0685    0.0322 C   0  0
   -3.7833   -3.7031    0.0549 C   0  0
   -1.2829   -3.7941   -0.0223 C   0  0
   -4.9723   -2.9865    0.0868 C   0  0
   -2.5375   -3.0516    0.0122 C   0  0
    4.9216   -1.6575    0.0175 C   0  0
   -0.0592   -5.9001   -0.0801 C   0  0
    6.1487   -0.9248    0.0232 C   0  0
    1.1501   -5.2163   -0.0611 C   0  0
    6.1552    0.4423    0.0067 C   0  0
   -1.2608   -5.1981   -0.0575 C   0  0
    4.6682    5.2708   -0.0685 H   0  0
    3.7338   -4.8459    0.0336 H   0  0
    5.8724    3.1241   -0.0320 H   0  0
    2.0738   -5.7908   -0.0786 H   0  0
    5.8432   -3.6125    0.0530 H   0  0
    7.0981    0.9924    0.0096 H   0  0
    7.0870   -1.4827    0.0394 H   0  0
   -0.0676   -6.9903   -0.1119 H   0  0
   -2.1920   -5.7608   -0.0732 H   0  0
   -3.8342   -4.7899    0.0691 H   0  0
    0.0663    6.5563   -0.1290 H   0  0
   -2.0708    5.3834   -0.1136 H   0  0
   -3.7402    4.4515   -0.0842 H   0  0
   -5.8608    3.2563   -0.0282 H   0  0
   -5.9236   -3.5227    0.1233 H   0  0
   -7.1088    1.1980    0.0742 H   0  0
   -7.1737   -1.2026    0.1234 H   0  0
   -6.2356    0.6390    1.0594 H   0  0
M  END

> <TOTAL ENERGY>
BIOVIA, TYPE=DOUBLE, VERSION=1                                                  
 -1839.11249660

> <BINDING ENERGY>
BIOVIA, TYPE=DOUBLE, VERSION=1                                                  
   -15.57751754

> <HOMO ENERGY>
BIOVIA, TYPE=DOUBLE, VERSION=1                                                  
    -0.17019788

> <LUMO ENERGY>
BIOVIA, TYPE=DOUBLE, VERSION=1                                                  
    -0.13208936

> <LUMO-HOMO ENERGY>
BIOVIA, TYPE=DOUBLE, VERSION=1                                                  
     0.03810852

> <OPERATION STATUS>
BIOVIA, TYPE=STATUS, VERSION=1                                                  
SUCCESS

$$$$
