Materials Studio SDF calculation
TCVAMP81A 

 72  0  0  0  0  0              1 V2000
    1.2187    0.4279    0.0504 C   0  0
    0.0143    2.5965    0.0344 C   0  0
    3.7029    0.4094    0.0649 C   0  0
    2.4822    2.5549    0.0503 C   0  0
    4.9338    2.5148    0.0605 C   0  0
   -0.0022    1.1588    0.0375 C   0  0
    2.4722    1.1256    0.0556 C   0  0
    1.2642    3.2994    0.0418 C   0  0
    4.9204    1.1426    0.0663 C   0  0
    3.7245    3.2524    0.0533 C   0  0
   -3.7273    0.4856   -0.0173 C   0  0
   -4.9086    2.6062   -0.0385 C   0  0
   -1.2475    0.4595    0.0251 C   0  0
   -2.4714    2.6160    0.0072 C   0  0
   -4.9429    1.2093   -0.0484 C   0  0
   -2.4802    1.1905    0.0046 C   0  0
   -3.7069    3.2965   -0.0070 C   0  0
   -1.2048    3.3228    0.0228 C   0  0
   -1.1408    4.7348    0.0229 C   0  0
    1.2919    4.7336    0.0395 C   0  0
    3.7332    4.6662    0.0492 C   0  0
    0.0522    5.4199    0.0315 C   0  0
    2.5694    5.4119    0.0437 C   0  0
   -0.0431   -1.6936    0.0507 C   0  0
    2.4380   -1.7229    0.0701 C   0  0
   -1.2654   -0.9669    0.0322 C   0  0
    1.2018   -0.9967    0.0572 C   0  0
    3.6862   -1.0351    0.0726 C   0  0
   -5.0048   -1.6437   -0.0201 C   0  0
   -2.5199   -1.6736    0.0215 C   0  0
   -6.1972   -0.9528   -0.0546 C   0  0
   -3.7341   -0.9481   -0.0047 C   0  0
   -6.2844    0.5248   -0.1441 C   0  0
    1.1661   -3.8475    0.0778 C   0  0
    3.6381   -3.8802    0.0931 C   0  0
   -0.0626   -3.1276    0.0624 C   0  0
    2.4139   -3.1528    0.0802 C   0  0
    4.8648   -3.1753    0.0934 C   0  0
   -3.8054   -3.7699    0.0315 C   0  0
   -1.3039   -3.8347    0.0584 C   0  0
   -4.9810   -3.0783    0.0030 C   0  0
   -2.5372   -3.1075    0.0378 C   0  0
    4.8807   -1.8006    0.0823 C   0  0
   -0.0810   -5.9546    0.0901 C   0  0
    2.3948   -5.9821    0.1054 C   0  0
    1.1662   -5.2752    0.0913 C   0  0
    3.5963   -5.3101    0.1066 C   0  0
   -1.2640   -5.2604    0.0739 C   0  0
    4.6958    5.1745    0.0507 H   0  0
    5.8718    0.6154    0.0722 H   0  0
    5.8463   -1.2997    0.0825 H   0  0
    5.7974   -3.7364    0.1020 H   0  0
    2.3742   -7.0748    0.1164 H   0  0
   -0.0871   -7.0457    0.1010 H   0  0
   -2.1936   -5.8250    0.0720 H   0  0
   -3.8441   -4.8569    0.0492 H   0  0
    0.0578    6.5052    0.0301 H   0  0
   -2.0588    5.3185    0.0141 H   0  0
   -3.7339    4.3837    0.0022 H   0  0
   -5.8516    3.1541   -0.0720 H   0  0
   -5.9345   -3.6089   -0.0031 H   0  0
   -6.9537    0.9191    0.6413 H   0  0
   -7.1409   -1.5010   -0.0713 H   0  0
   -6.9925    0.9155   -1.3665 O   0  0
   -6.4600    0.5662   -2.1047 H   0  0
    2.6825    6.8950    0.0411 C   0  0
    1.7694    7.7096    0.0404 O   0  0
    3.9879    7.3250    0.0381 O   0  0
    3.9163    8.3004    0.0364 H   0  0
    5.8814    3.0557    0.0618 H   0  0
    4.8082   -5.9498    0.1203 O   0  0
    4.6513   -6.9093    0.1273 H   0  0
M  END

> <TOTAL ENERGY>
BIOVIA, TYPE=DOUBLE, VERSION=1                                                  
 -2177.92968304

> <BINDING ENERGY>
BIOVIA, TYPE=DOUBLE, VERSION=1                                                  
   -16.59934518

> <HOMO ENERGY>
BIOVIA, TYPE=DOUBLE, VERSION=1                                                  
    -0.15402510

> <LUMO ENERGY>
BIOVIA, TYPE=DOUBLE, VERSION=1                                                  
    -0.13741676

> <LUMO-HOMO ENERGY>
BIOVIA, TYPE=DOUBLE, VERSION=1                                                  
     0.01660833

> <OPERATION STATUS>
BIOVIA, TYPE=STATUS, VERSION=1                                                  
SUCCESS

$$$$
