Materials Studio SDF calculation
TCVAMP81A 

 67  0  0  0  0  0              1 V2000
    1.1864    0.6243    0.0244 C   0  0
   -0.0449    2.7863    0.0473 C   0  0
    3.6674    0.6095    0.0036 C   0  0
    2.4471    2.7577   -0.0063 C   0  0
    4.9041    2.7134   -0.0729 C   0  0
   -0.0437    1.3508    0.0292 C   0  0
    2.4398    1.3247    0.0123 C   0  0
    1.2272    3.4936    0.0271 C   0  0
    4.8896    1.3463   -0.0324 C   0  0
    3.6929    3.4601   -0.0665 C   0  0
   -3.7532    0.6582   -0.0193 C   0  0
   -4.9521    2.7926    0.0336 C   0  0
   -1.2815    0.6434    0.0060 C   0  0
   -2.5072    2.7935    0.0239 C   0  0
   -4.9863    1.3730   -0.0132 C   0  0
   -2.5124    1.3647   -0.0019 C   0  0
   -3.7630    3.4754    0.0614 C   0  0
   -1.2634    3.4872    0.0440 C   0  0
   -1.2526    4.9646    0.0843 C   0  0
    1.2820    4.9039   -0.0033 C   0  0
    3.7009    4.8693   -0.1289 C   0  0
    0.0391    5.6861    0.0723 C   0  0
    2.5115    5.5746   -0.1085 C   0  0
    2.5157    6.6657   -0.1480 H   0  0
   -0.0694   -1.5059    0.0034 C   0  0
    2.4107   -1.5222    0.0210 C   0  0
   -1.2933   -0.7880   -0.0068 C   0  0
    1.1741   -0.7981    0.0164 C   0  0
    3.6559   -0.8312    0.0218 C   0  0
   -5.0139   -1.4591   -0.0633 C   0  0
   -2.5384   -1.4980   -0.0294 C   0  0
   -6.2264   -0.7175   -0.0652 C   0  0
   -3.7662   -0.7683   -0.0386 C   0  0
   -6.2130    0.6563   -0.0373 C   0  0
    1.1507   -3.6568    0.0119 C   0  0
    3.6136   -3.6856    0.0365 C   0  0
   -0.0853   -2.9394   -0.0023 C   0  0
    2.3918   -2.9524    0.0239 C   0  0
    4.8375   -2.9696    0.0457 C   0  0
   -3.8244   -3.5800   -0.0716 C   0  0
   -1.3184   -3.6520   -0.0221 C   0  0
   -5.0051   -2.8776   -0.0833 C   0  0
   -2.5618   -2.9231   -0.0412 C   0  0
    4.8552   -1.5964    0.0366 C   0  0
   -0.0914   -5.7659   -0.0048 C   0  0
    2.3891   -5.7860    0.0256 C   0  0
    1.1521   -5.0830    0.0112 C   0  0
    3.5824   -5.1082    0.0390 C   0  0
   -1.2784   -5.0750   -0.0219 C   0  0
    4.6584    5.3908   -0.1848 H   0  0
    5.8404    0.8172   -0.0393 H   0  0
    5.8523    3.2531   -0.1117 H   0  0
    5.8198   -1.0929    0.0444 H   0  0
    5.7752   -3.5286    0.0589 H   0  0
    4.5307   -5.6492    0.0499 H   0  0
    2.3694   -6.8774    0.0258 H   0  0
   -0.0917   -6.8574   -0.0042 H   0  0
   -2.2080   -5.6406   -0.0333 H   0  0
   -3.8674   -4.6673   -0.0879 H   0  0
    0.0712    6.7043   -0.3317 H   0  0
   -2.1170    5.4862   -0.3333 H   0  0
   -3.7869    4.5610    0.1342 H   0  0
   -5.8982    3.3368    0.0634 H   0  0
   -5.9595   -3.4076   -0.1063 H   0  0
   -7.1485    1.2188   -0.0329 H   0  0
   -7.1729   -1.2613   -0.0847 H   0  0
    3.2618    5.3778    1.2999 O   0  0
M  END

> <TOTAL ENERGY>
BIOVIA, TYPE=DOUBLE, VERSION=1                                                  
 -1913.69998563

> <BINDING ENERGY>
BIOVIA, TYPE=DOUBLE, VERSION=1                                                  
   -15.66398590

> <HOMO ENERGY>
BIOVIA, TYPE=DOUBLE, VERSION=1                                                  
    -0.17544694

> <LUMO ENERGY>
BIOVIA, TYPE=DOUBLE, VERSION=1                                                  
    -0.10435119

> <LUMO-HOMO ENERGY>
BIOVIA, TYPE=DOUBLE, VERSION=1                                                  
     0.07109576

> <OPERATION STATUS>
BIOVIA, TYPE=STATUS, VERSION=1                                                  
SUCCESS

$$$$
