Materials Studio SDF calculation
TCVAMP81A 

 67  0  0  0  0  0              1 V2000
    1.1932    0.4499   -0.0130 C   0  0
   -0.0153    2.6053    0.0065 C   0  0
    3.6661    0.4416   -0.0619 C   0  0
    2.4562    2.5783   -0.0446 C   0  0
    4.9032    2.5532   -0.0946 C   0  0
   -0.0354    1.1779    0.0089 C   0  0
    2.4403    1.1579   -0.0416 C   0  0
    1.2307    3.3044   -0.0154 C   0  0
    4.9125    1.1527   -0.0898 C   0  0
    3.7057    3.2827   -0.0706 C   0  0
   -3.7723    0.5033    0.0343 C   0  0
   -5.0347    2.6530    0.0905 C   0  0
   -1.2797    0.4811    0.0380 C   0  0
   -2.4791    2.6296    0.0677 C   0  0
   -5.0059    1.1855   -0.0005 C   0  0
   -2.5083    1.2255    0.0630 C   0  0
   -3.7484    3.3852    0.1144 C   0  0
   -1.2404    3.3390    0.0458 C   0  0
   -1.1748    4.7621    0.0958 C   0  0
    1.2561    4.7292   -0.0001 C   0  0
    3.6916    4.7131   -0.0660 C   0  0
    0.0272    5.4306    0.0613 C   0  0
    2.5119    5.4080   -0.0289 C   0  0
    2.5125    6.4995   -0.0182 H   0  0
   -0.0656   -1.6709    0.0210 C   0  0
    2.4185   -1.6952   -0.0170 C   0  0
   -1.2895   -0.9463    0.0329 C   0  0
    1.1809   -0.9696   -0.0016 C   0  0
    3.6581   -0.9828   -0.0501 C   0  0
   -5.0176   -1.6240   -0.0802 C   0  0
   -2.5424   -1.6562    0.0216 C   0  0
   -6.2279   -0.9008   -0.1577 C   0  0
   -3.7722   -0.9221   -0.0044 C   0  0
   -6.2160    0.4805   -0.1262 C   0  0
    1.1585   -3.8358    0.0439 C   0  0
    3.6693   -3.7878   -0.0173 C   0  0
   -0.0742   -3.1063    0.0379 C   0  0
    2.4237   -3.1172    0.0044 C   0  0
    4.8675   -3.1005   -0.0542 C   0  0
   -3.8239   -3.7390   -0.0360 C   0  0
   -1.3186   -3.8134    0.0544 C   0  0
   -5.0037   -3.0460   -0.0915 C   0  0
   -2.5647   -3.0723    0.0170 C   0  0
    4.8962   -1.6912   -0.0693 C   0  0
   -0.0994   -5.9222    0.1257 C   0  0
    6.1249   -0.9600   -0.1009 C   0  0
    1.1133   -5.2392    0.0903 C   0  0
    6.1342    0.4068   -0.1112 C   0  0
   -1.2981   -5.2215    0.1040 C   0  0
    4.6472    5.2409   -0.0868 H   0  0
    3.7006   -4.8755   -0.0063 H   0  0
    5.8544    3.0905   -0.1152 H   0  0
    2.0353   -5.8167    0.1047 H   0  0
    5.8119   -3.6481   -0.0701 H   0  0
    7.0781    0.9547   -0.1343 H   0  0
    7.0621   -1.5197   -0.1160 H   0  0
   -0.1075   -7.0120    0.1701 H   0  0
   -2.2295   -5.7825    0.1350 H   0  0
   -3.8596   -4.8261   -0.0515 H   0  0
    0.0463    6.5214    0.1011 H   0  0
   -2.0908    5.3429    0.1851 H   0  0
   -3.7478    4.4000   -0.2911 H   0  0
   -5.9226    3.1528   -0.3122 H   0  0
   -5.9556   -3.5780   -0.1476 H   0  0
   -7.1519    1.0408   -0.1742 H   0  0
   -7.1694   -1.4484   -0.2325 H   0  0
   -4.5455    3.2477    1.3251 O   0  0
M  END

> <TOTAL ENERGY>
BIOVIA, TYPE=DOUBLE, VERSION=1                                                  
 -1913.69079641

> <BINDING ENERGY>
BIOVIA, TYPE=DOUBLE, VERSION=1                                                  
   -15.65479668

> <HOMO ENERGY>
BIOVIA, TYPE=DOUBLE, VERSION=1                                                  
    -0.16752562

> <LUMO ENERGY>
BIOVIA, TYPE=DOUBLE, VERSION=1                                                  
    -0.11297018

> <LUMO-HOMO ENERGY>
BIOVIA, TYPE=DOUBLE, VERSION=1                                                  
     0.05455544

> <OPERATION STATUS>
BIOVIA, TYPE=STATUS, VERSION=1                                                  
SUCCESS

$$$$
