Materials Studio SDF calculation
TCVAMP81A 

 69  0  0  0  0  0              1 V2000
    0.9986    0.1642    0.0000 C   0  0
   -0.2155    2.3233    0.0000 C   0  0
    3.4724    0.1574    0.0000 C   0  0
    2.2602    2.2937    0.0000 C   0  0
    4.7076    2.2702    0.0000 C   0  0
   -0.2272    0.8890    0.0000 C   0  0
    2.2467    0.8729    0.0000 C   0  0
    1.0335    3.0201    0.0000 C   0  0
    4.7184    0.8690    0.0000 C   0  0
    3.5102    2.9981    0.0000 C   0  0
   -3.9402    0.2162    0.0000 C   0  0
   -5.1390    2.3467    0.0000 C   0  0
   -1.4664    0.1874    0.0000 C   0  0
   -2.6954    2.3471    0.0000 C   0  0
   -5.1734    0.9310    0.0000 C   0  0
   -2.6986    0.9236    0.0000 C   0  0
   -3.9434    3.0272    0.0000 C   0  0
   -1.4347    3.0583    0.0000 C   0  0
   -1.3691    4.4750    0.0000 C   0  0
    1.0611    4.4455    0.0000 C   0  0
    3.4977    4.4298    0.0000 C   0  0
   -0.1652    5.1475    0.0000 C   0  0
    2.3196    5.1249    0.0000 C   0  0
    2.3198    6.2165    0.0000 C   0  0
   -0.2518   -1.9631    0.0000 C   0  0
    2.2286   -1.9833    0.0000 C   0  0
   -1.4776   -1.2383    0.0000 C   0  0
    0.9888   -1.2594    0.0000 C   0  0
    3.4666   -1.2686    0.0000 C   0  0
   -5.2040   -1.9006    0.0000 C   0  0
   -2.7293   -1.9462    0.0000 C   0  0
   -6.4192   -1.1567    0.0000 C   0  0
   -3.9546   -1.2115    0.0000 C   0  0
   -6.4047    0.2136    0.0000 C   0  0
    0.9715   -4.1266    0.0000 C   0  0
    3.4829   -4.0746    0.0000 C   0  0
   -0.2620   -3.3992    0.0000 C   0  0
    2.2351   -3.4053    0.0000 C   0  0
    4.6795   -3.3854    0.0000 C   0  0
   -4.0159   -4.0202    0.0000 C   0  0
   -1.5061   -4.1074    0.0000 C   0  0
   -5.1986   -3.3155    0.0000 C   0  0
   -2.7560   -3.3659    0.0000 C   0  0
    4.7056   -1.9747    0.0000 C   0  0
   -0.2839   -6.2160    0.0000 C   0  0
    5.9337   -1.2421    0.0000 C   0  0
    0.9278   -5.5319    0.0000 C   0  0
    5.9413    0.1251    0.0000 C   0  0
   -1.4841   -5.5149    0.0000 C   0  0
    4.4544    4.9558    0.0000 H   0  0
    3.5155   -5.1624    0.0000 H   0  0
    5.6586    2.8082    0.0000 H   0  0
    1.8501   -6.1098    0.0000 H   0  0
    5.6255   -3.9305    0.0000 H   0  0
    6.8849    0.6741    0.0000 H   0  0
    6.8718   -1.8004    0.0000 H   0  0
   -0.2916   -7.3066    0.0000 H   0  0
   -2.4157   -6.0769    0.0000 H   0  0
   -4.0620   -5.1074    0.0000 H   0  0
   -0.1486    6.2389    0.0000 H   0  0
   -2.2869    5.0596    0.0000 H   0  0
   -3.9663    4.1152    0.0000 H   0  0
   -6.0832    2.8947    0.0000 H   0  0
   -6.1534   -3.8451    0.0000 H   0  0
   -7.3386    0.7788    0.0000 H   0  0
   -7.3653   -1.7016    0.0000 H   0  0
    1.3198    7.0165    0.0000 O   0  0
    3.3198    7.0165    0.0000 O   0  0
    3.3198    8.0165    0.0000 H   0  0
M  END

> <TOTAL ENERGY>
BIOVIA, TYPE=DOUBLE, VERSION=1                                                  
 -2027.02751023

> <BINDING ENERGY>
BIOVIA, TYPE=DOUBLE, VERSION=1                                                  
   -16.19828206

> <HOMO ENERGY>
BIOVIA, TYPE=DOUBLE, VERSION=1                                                  
    -0.17373170

> <LUMO ENERGY>
BIOVIA, TYPE=DOUBLE, VERSION=1                                                  
    -0.11210542

> <LUMO-HOMO ENERGY>
BIOVIA, TYPE=DOUBLE, VERSION=1                                                  
     0.06162628

> <OPERATION STATUS>
BIOVIA, TYPE=STATUS, VERSION=1                                                  
SUCCESS

$$$$
