Materials Studio SDF calculation
TCVAMP81A 

 69  0  0  0  0  0              1 V2000
    1.3368    0.6637   -0.0619 C   0  0
    0.1343    2.8301   -0.0756 C   0  0
    3.8193    0.6378   -0.0796 C   0  0
    2.6116    2.7850   -0.0914 C   0  0
    5.0536    2.7455   -0.1012 C   0  0
    0.1126    1.3962   -0.0573 C   0  0
    2.5907    1.3557   -0.0775 C   0  0
    1.3857    3.5181   -0.0936 C   0  0
    5.0336    1.3675   -0.0890 C   0  0
    3.8452    3.4980   -0.1047 C   0  0
   -3.5991    0.7563    0.0022 C   0  0
   -4.7847    2.9204   -0.0229 C   0  0
   -1.1317    0.7058   -0.0350 C   0  0
   -2.3406    2.8811   -0.0547 C   0  0
   -4.8489    1.4874    0.0134 C   0  0
   -2.3640    1.4480   -0.0291 C   0  0
   -3.5898    3.5784   -0.0555 C   0  0
   -1.0853    3.5729   -0.0774 C   0  0
   -1.0091    4.9970   -0.1042 C   0  0
    1.4203    4.9457   -0.1148 C   0  0
    3.8520    4.9190   -0.1220 C   0  0
    0.1922    5.6575   -0.1218 C   0  0
    2.6705    5.6198   -0.1282 C   0  0
    0.0675   -1.4515   -0.0312 C   0  0
    2.5493   -1.4908   -0.0574 C   0  0
   -1.1561   -0.7199   -0.0200 C   0  0
    1.3133   -0.7607   -0.0499 C   0  0
    3.7985   -0.8078   -0.0726 C   0  0
   -4.8703   -1.3651    0.0599 C   0  0
   -2.4081   -1.4188    0.0061 C   0  0
   -6.1910   -0.6420    0.1461 C   0  0
   -3.6332   -0.6775    0.0242 C   0  0
   -6.0614    0.8317    0.0511 C   0  0
    1.2717   -3.6120   -0.0299 C   0  0
    3.7426   -3.6534   -0.0577 C   0  0
    0.0422   -2.8870   -0.0205 C   0  0
    2.5210   -2.9210   -0.0486 C   0  0
    4.9709   -2.9527   -0.0740 C   0  0
   -3.6956   -3.4884    0.0358 C   0  0
   -1.1938   -3.5882    0.0007 C   0  0
   -4.8763   -2.7623    0.0602 C   0  0
   -2.4395   -2.8459    0.0142 C   0  0
    4.9901   -1.5776   -0.0808 C   0  0
    0.0194   -5.7102    0.0047 C   0  0
    2.4958   -5.7513   -0.0270 C   0  0
    1.2658   -5.0381   -0.0181 C   0  0
    3.6964   -5.0845   -0.0479 C   0  0
   -1.1633   -5.0064    0.0141 C   0  0
    4.8101    5.4361   -0.1313 H   0  0
    5.9875    0.8396   -0.0873 H   0  0
    5.9581   -1.0805   -0.0931 H   0  0
    5.9016   -3.5171   -0.0809 H   0  0
    2.4702   -6.8439   -0.0173 H   0  0
    0.0060   -6.8012    0.0163 H   0  0
   -2.0967   -5.5653    0.0335 H   0  0
   -3.7546   -4.5749    0.0346 H   0  0
    0.2188    6.7482   -0.1412 H   0  0
   -1.9232    5.5861   -0.1092 H   0  0
   -3.5986    4.6658   -0.0797 H   0  0
   -5.7224    3.4783   -0.0214 H   0  0
   -5.8350   -3.2823    0.0976 H   0  0
   -6.9885    1.4073    0.0646 H   0  0
   -6.8697   -1.0198   -0.6394 H   0  0
   -6.9168   -1.0085    1.3682 O   0  0
   -6.3806   -0.6642    2.1061 H   0  0
    2.6761    6.7108   -0.1435 H   0  0
    6.2206    3.4647   -0.1100 O   0  0
    6.9674    2.8420   -0.1075 H   0  0
    4.5091   -5.7267   -0.0585 H   0  0
M  END

> <TOTAL ENERGY>
BIOVIA, TYPE=DOUBLE, VERSION=1                                                  
 -1989.46335519

> <BINDING ENERGY>
BIOVIA, TYPE=DOUBLE, VERSION=1                                                  
   -15.92695590

> <HOMO ENERGY>
BIOVIA, TYPE=DOUBLE, VERSION=1                                                  
    -0.14342789

> <LUMO ENERGY>
BIOVIA, TYPE=DOUBLE, VERSION=1                                                  
    -0.09807852

> <LUMO-HOMO ENERGY>
BIOVIA, TYPE=DOUBLE, VERSION=1                                                  
     0.04534937

> <OPERATION STATUS>
BIOVIA, TYPE=STATUS, VERSION=1                                                  
SUCCESS

$$$$
