Materials Studio SDF calculation
TCVAMP81A 

 70  0  0  0  0  0              1 V2000
    1.2421    0.7514   -0.0597 C   0  0
    0.0353    2.9182   -0.0634 C   0  0
    3.7242    0.7333   -0.0626 C   0  0
    2.5141    2.8772   -0.0377 C   0  0
    4.9549    2.8431   -0.0289 C   0  0
    0.0172    1.4794   -0.0636 C   0  0
    2.4958    1.4472   -0.0546 C   0  0
    1.2876    3.6085   -0.0392 C   0  0
    4.9372    1.4650   -0.0509 C   0  0
    3.7458    3.5922   -0.0219 C   0  0
   -3.6978    0.8286   -0.1317 C   0  0
   -4.8747    2.9410   -0.3189 C   0  0
   -1.2236    0.7854   -0.0660 C   0  0
   -2.4440    2.9544   -0.1422 C   0  0
   -4.9039    1.5434   -0.2744 C   0  0
   -2.4551    1.5252   -0.1066 C   0  0
   -3.6744    3.6332   -0.2413 C   0  0
   -1.1752    3.6587   -0.0887 C   0  0
   -1.1090    5.0754   -0.0593 C   0  0
    1.3181    5.0353   -0.0195 C   0  0
    3.7500    5.0153   -0.0007 C   0  0
    0.0927    5.7433   -0.0220 C   0  0
    2.5705    5.7132    0.0022 C   0  0
   -0.0226   -1.3682   -0.0492 C   0  0
    2.4598   -1.4001   -0.0741 C   0  0
   -1.2447   -0.6421   -0.0509 C   0  0
    1.2219   -0.6733   -0.0607 C   0  0
    3.7067   -0.7136   -0.0810 C   0  0
   -4.9481   -1.2953    0.1422 C   0  0
   -2.4966   -1.3469   -0.0083 C   0  0
   -6.2358   -0.5218    0.2862 C   0  0
   -3.7219   -0.6196   -0.0089 C   0  0
   -6.1989    0.8024   -0.4788 C   0  0
    1.1879   -3.5263   -0.0667 C   0  0
    3.6587   -3.5588   -0.1107 C   0  0
   -0.0439   -2.8065   -0.0388 C   0  0
    2.4351   -2.8308   -0.0853 C   0  0
    4.8846   -2.8547   -0.1222 C   0  0
   -3.7712   -3.4124    0.2007 C   0  0
   -1.2755   -3.5122    0.0053 C   0  0
   -4.9522   -2.6873    0.2565 C   0  0
   -2.5237   -2.7731    0.0607 C   0  0
    4.9001   -1.4793   -0.1059 C   0  0
   -0.0568   -5.6293   -0.0479 C   0  0
    2.4193   -5.6617   -0.1008 C   0  0
    1.1867   -4.9529   -0.0721 C   0  0
    3.6169   -4.9907   -0.1221 C   0  0
   -1.2417   -4.9300   -0.0070 C   0  0
    4.7077    5.5331    0.0145 H   0  0
    5.8922    0.9390   -0.0552 H   0  0
    5.8666   -0.9792   -0.1168 H   0  0
    5.8170   -3.4160   -0.1434 H   0  0
    2.3977   -6.7545   -0.1070 H   0  0
   -0.0665   -6.7204   -0.0599 H   0  0
   -2.1741   -5.4913    0.0061 H   0  0
   -3.8234   -4.4967    0.2826 H   0  0
    0.1145    6.8340    0.0040 H   0  0
   -2.0268    5.6597   -0.0582 H   0  0
   -3.6992    4.7203   -0.2759 H   0  0
   -5.8144    3.4899   -0.4176 H   0  0
   -5.9031   -3.2057    0.3931 H   0  0
   -7.0408    1.4209   -0.1220 H   0  0
   -7.0703   -1.1113   -0.1193 H   0  0
   -6.5622   -0.3134    1.6744 O   0  0
   -5.7572    0.0116    2.1152 H   0  0
    2.5731    6.8042    0.0206 H   0  0
    6.1214    3.5647   -0.0157 O   0  0
    6.8687    2.9425   -0.0225 H   0  0
    4.8322   -5.6276   -0.1509 O   0  0
    4.6749   -6.5872   -0.1547 H   0  0
M  END

> <TOTAL ENERGY>
BIOVIA, TYPE=DOUBLE, VERSION=1                                                  
 -2064.65153268

> <BINDING ENERGY>
BIOVIA, TYPE=DOUBLE, VERSION=1                                                  
   -16.11442326

> <HOMO ENERGY>
BIOVIA, TYPE=DOUBLE, VERSION=1                                                  
    -0.14236766

> <LUMO ENERGY>
BIOVIA, TYPE=DOUBLE, VERSION=1                                                  
    -0.09641230

> <LUMO-HOMO ENERGY>
BIOVIA, TYPE=DOUBLE, VERSION=1                                                  
     0.04595535

> <OPERATION STATUS>
BIOVIA, TYPE=STATUS, VERSION=1                                                  
SUCCESS

$$$$
