Materials Studio SDF calculation
TCVAMP81A 

 72  0  0  0  0  0              1 V2000
    1.1714    0.3198   -0.0633 C   0  0
   -0.0297    2.4915   -0.0599 C   0  0
    3.6540    0.3012   -0.0738 C   0  0
    2.4405    2.4452   -0.0481 C   0  0
    4.8904    2.4038   -0.0491 C   0  0
   -0.0496    1.0511   -0.0617 C   0  0
    2.4235    1.0163   -0.0630 C   0  0
    1.2220    3.1924   -0.0434 C   0  0
    4.8704    1.0274   -0.0684 C   0  0
    3.6771    3.1503   -0.0386 C   0  0
   -3.7669    0.3916   -0.1214 C   0  0
   -4.9456    2.5052   -0.2803 C   0  0
   -1.2908    0.3538   -0.0618 C   0  0
   -2.5146    2.5166   -0.1229 C   0  0
   -4.9731    1.1069   -0.2544 C   0  0
   -2.5247    1.0887   -0.0944 C   0  0
   -3.7454    3.1970   -0.2019 C   0  0
   -1.2457    3.2208   -0.0764 C   0  0
   -1.1814    4.6323   -0.0460 C   0  0
    1.2503    4.6268   -0.0242 C   0  0
    3.6921    4.5620   -0.0176 C   0  0
    0.0119    5.3152   -0.0169 C   0  0
    2.5268    5.3050   -0.0099 C   0  0
   -0.0903   -1.8012   -0.0527 C   0  0
    2.3899   -1.8302   -0.0802 C   0  0
   -1.3116   -1.0746   -0.0518 C   0  0
    1.1525   -1.1044   -0.0652 C   0  0
    3.6369   -1.1447   -0.0888 C   0  0
   -5.0150   -1.7365    0.1270 C   0  0
   -2.5627   -1.7819   -0.0135 C   0  0
   -6.3069   -0.9694    0.2690 C   0  0
   -3.7898   -1.0572   -0.0144 C   0  0
   -6.2671    0.3682   -0.4723 C   0  0
    1.1227   -3.9599   -0.0720 C   0  0
    3.5862   -3.9972   -0.1137 C   0  0
   -0.1104   -3.2396   -0.0442 C   0  0
    2.3669   -3.2600   -0.0901 C   0  0
    4.8108   -3.2865   -0.1249 C   0  0
   -3.8357   -3.8516    0.1769 C   0  0
   -1.3402   -3.9475   -0.0047 C   0  0
   -5.0179   -3.1293    0.2321 C   0  0
   -2.5889   -3.2086    0.0476 C   0  0
    4.8313   -1.9121   -0.1110 C   0  0
   -0.1230   -6.0644   -0.0566 C   0  0
    2.3566   -6.0939   -0.1057 C   0  0
    1.1194   -5.3869   -0.0781 C   0  0
    3.5500   -5.4219   -0.1234 C   0  0
   -1.3081   -5.3663   -0.0186 C   0  0
    4.6540    5.0667   -0.0081 H   0  0
    5.8233    0.4984   -0.0751 H   0  0
    5.7985   -1.4135   -0.1202 H   0  0
    5.7468   -3.8471   -0.1433 H   0  0
    4.4961   -5.9657   -0.1435 H   0  0
    2.3330   -7.1849   -0.1124 H   0  0
   -0.1296   -7.1553   -0.0714 H   0  0
   -2.2409   -5.9264   -0.0095 H   0  0
   -3.8868   -4.9363    0.2497 H   0  0
    0.0202    6.4003    0.0075 H   0  0
   -2.0993    5.2163   -0.0400 H   0  0
   -3.7704    4.2841   -0.2225 H   0  0
   -5.8863    3.0543   -0.3657 H   0  0
   -5.9689   -3.6497    0.3602 H   0  0
   -7.1107    0.9797   -0.1077 H   0  0
   -7.1333   -1.5539   -0.1601 H   0  0
   -6.6515   -0.7901    1.6560 O   0  0
   -5.8531   -0.4762    2.1160 H   0  0
    2.6400    6.7881    0.0133 C   0  0
    1.7265    7.6027    0.0237 O   0  0
    3.9447    7.2181    0.0263 O   0  0
    3.8723    8.1934    0.0407 H   0  0
    6.0528    3.1259   -0.0390 O   0  0
    6.8035    2.5080   -0.0481 H   0  0
M  END

> <TOTAL ENERGY>
BIOVIA, TYPE=DOUBLE, VERSION=1                                                  
 -2177.93185223

> <BINDING ENERGY>
BIOVIA, TYPE=DOUBLE, VERSION=1                                                  
   -16.60151437

> <HOMO ENERGY>
BIOVIA, TYPE=DOUBLE, VERSION=1                                                  
    -0.14702930

> <LUMO ENERGY>
BIOVIA, TYPE=DOUBLE, VERSION=1                                                  
    -0.10884299

> <LUMO-HOMO ENERGY>
BIOVIA, TYPE=DOUBLE, VERSION=1                                                  
     0.03818631

> <OPERATION STATUS>
BIOVIA, TYPE=STATUS, VERSION=1                                                  
SUCCESS

$$$$
