Materials Studio SDF calculation
TCVAMP81A 

 68  0  0  0  0  0              1 V2000
    1.4212    0.8395   -0.0481 C   0  0
    0.1893    2.9689   -0.0481 C   0  0
    3.8812    0.8417   -0.0481 C   0  0
    2.6493    2.9710   -0.0481 C   0  0
    5.1093    2.9732   -0.0481 C   0  0
    0.1905    1.5486   -0.0481 C   0  0
    2.6505    1.5507   -0.0481 C   0  0
    1.4187    3.6801   -0.0481 C   0  0
    5.1105    1.5529   -0.0481 C   0  0
    3.8787    3.6822   -0.0481 C   0  0
   -3.4788    0.8395   -0.0481 C   0  0
   -4.7107    2.9689   -0.0481 C   0  0
   -1.0188    0.8417   -0.0481 C   0  0
   -2.2507    2.9710   -0.0481 C   0  0
   -4.7095    1.5486   -0.0481 C   0  0
   -2.2495    1.5507   -0.0481 C   0  0
   -3.4813    3.6801   -0.0481 C   0  0
   -1.0213    3.6822   -0.0481 C   0  0
   -1.0107    5.1689   -0.0481 C   0  0
    1.4493    5.1710   -0.0481 C   0  0
    3.9093    5.1732   -0.0481 C   0  0
    0.2187    5.8801   -0.0481 C   0  0
    2.6787    5.8822   -0.0481 C   0  0
    2.7786    6.8790   -0.0480 H   0  0
    0.2212   -1.3605   -0.0481 C   0  0
    2.6812   -1.3583   -0.0481 C   0  0
   -1.0095   -0.6514   -0.0481 C   0  0
    1.4505   -0.6493   -0.0481 C   0  0
    3.9105   -0.6471   -0.0481 C   0  0
   -4.6788   -1.3605   -0.0481 C   0  0
   -2.2188   -1.3583   -0.0481 C   0  0
   -5.9095   -0.6514   -0.0481 C   0  0
   -3.4495   -0.6493   -0.0481 C   0  0
   -5.9095    0.7486   -0.0481 C   0  0
    1.3137   -3.7358   -0.0481 C   0  0
    3.7737   -3.7337   -0.0481 C   0  0
    0.0830   -3.0267   -0.0481 C   0  0
    2.5430   -3.0246   -0.0481 C   0  0
    5.0030   -3.0224   -0.0481 C   0  0
   -3.5863   -3.7358   -0.0481 C   0  0
   -1.1263   -3.7337   -0.0481 C   0  0
   -4.8170   -3.0267   -0.0481 C   0  0
   -2.3570   -3.0246   -0.0481 C   0  0
    5.1361   -1.6009   -0.0482 C   0  0
    0.0039   -5.9976    0.0388 C   0  0
    2.4639   -5.9954    0.0388 C   0  0
    1.2332   -5.2864    0.0388 C   0  0
    3.6932   -5.2842    0.0388 C   0  0
   -1.2068   -5.2842    0.0388 C   0  0
    4.6285    5.7823   -0.0542 H   0  0
    6.1105    1.5529   -0.0481 H   0  0
    5.9315    3.4728   -0.0549 H   0  0
    5.9489   -1.1948   -0.0522 H   0  0
    5.6841   -3.6126   -0.0425 H   0  0
    4.5710   -5.7870    0.0457 H   0  0
    2.4262   -6.9748    0.0496 H   0  0
   -0.0242   -6.8653    0.0466 H   0  0
   -1.8282   -5.9330    0.0442 H   0  0
   -3.6144   -4.6035   -0.0402 H   0  0
    0.2478    6.8113   -0.0577 H   0  0
   -1.6908    5.8225   -0.0554 H   0  0
   -3.4522    4.6113   -0.0577 H   0  0
   -5.6097    3.0292   -0.0498 H   0  0
   -5.6319   -3.4693   -0.0448 H   0  0
   -6.7894    1.4086   -0.0556 H   0  0
   -6.7244   -1.0940   -0.0448 H   0  0
   -5.6013   -0.6284    1.2716 O   0  0
   -5.4259    0.2766    1.1212 H   0  0
M  END

> <TOTAL ENERGY>
BIOVIA, TYPE=DOUBLE, VERSION=1                                                  
 -1914.27499050

> <BINDING ENERGY>
BIOVIA, TYPE=DOUBLE, VERSION=1                                                  
   -15.73930131

> <HOMO ENERGY>
BIOVIA, TYPE=DOUBLE, VERSION=1                                                  
    -0.14510084

> <LUMO ENERGY>
BIOVIA, TYPE=DOUBLE, VERSION=1                                                  
    -0.09833545

> <LUMO-HOMO ENERGY>
BIOVIA, TYPE=DOUBLE, VERSION=1                                                  
     0.04676539

> <OPERATION STATUS>
BIOVIA, TYPE=STATUS, VERSION=1                                                  
SUCCESS

$$$$
