Materials Studio SDF calculation
TCVAMP81A 

 72  0  0  0  0  0              1 V2000
    1.1860    0.2827    0.0460 C   0  0
   -0.0204    2.4480    0.0249 C   0  0
    3.6693    0.2698    0.0593 C   0  0
    2.4495    2.4107    0.0365 C   0  0
    4.9000    2.3766    0.0483 C   0  0
   -0.0361    1.0106    0.0333 C   0  0
    2.4365    0.9822    0.0483 C   0  0
    1.2288    3.1537    0.0241 C   0  0
    4.8839    1.0004    0.0604 C   0  0
    3.6845    3.1201    0.0363 C   0  0
   -3.7577    0.3285   -0.0277 C   0  0
   -4.9436    2.4453    0.0175 C   0  0
   -1.2793    0.3085    0.0202 C   0  0
   -2.5066    2.4629    0.0190 C   0  0
   -4.9754    1.0492   -0.0477 C   0  0
   -2.5132    1.0366    0.0033 C   0  0
   -3.7424    3.1398    0.0488 C   0  0
   -1.2410    3.1719    0.0136 C   0  0
   -1.1808    4.5836   -0.0169 C   0  0
    1.2518    4.5879    0.0099 C   0  0
    3.6943    4.5312    0.0276 C   0  0
    0.0103    5.2712   -0.0150 C   0  0
    2.5259    5.2706    0.0155 C   0  0
   -0.0717   -1.8417    0.0513 C   0  0
    2.4078   -1.8635    0.0701 C   0  0
   -1.2956   -1.1177    0.0284 C   0  0
    1.1706   -1.1412    0.0560 C   0  0
    3.6553   -1.1747    0.0698 C   0  0
   -5.0338   -1.8014   -0.0306 C   0  0
   -2.5481   -1.8268    0.0185 C   0  0
   -6.2233   -1.1158   -0.0809 C   0  0
   -3.7641   -1.1038   -0.0160 C   0  0
   -6.3101    0.3646   -0.1837 C   0  0
    1.1426   -3.9938    0.0895 C   0  0
    3.6078   -4.0285    0.0996 C   0  0
   -0.0895   -3.2756    0.0703 C   0  0
    2.3867   -3.2926    0.0860 C   0  0
    4.8321   -3.3152    0.0949 C   0  0
   -3.8314   -3.9259    0.0340 C   0  0
   -1.3289   -3.9858    0.0706 C   0  0
   -5.0084   -3.2370    0.0046 C   0  0
   -2.5644   -3.2605    0.0420 C   0  0
    4.8509   -1.9412    0.0804 C   0  0
   -0.1027   -6.1024    0.1136 C   0  0
    2.3774   -6.1254    0.1236 C   0  0
    1.1428   -5.4216    0.1099 C   0  0
    3.5732   -5.4509    0.1187 C   0  0
   -1.2876   -5.4116    0.0946 C   0  0
    4.6542    5.0396    0.0325 H   0  0
    5.8381    0.4737    0.0706 H   0  0
    5.8174   -1.4410    0.0789 H   0  0
    5.7688   -3.8745    0.1043 H   0  0
    4.5192   -5.9948    0.1287 H   0  0
    2.3558   -7.2164    0.1375 H   0  0
   -0.1047   -7.1937    0.1296 H   0  0
   -2.2163   -5.9773    0.0994 H   0  0
   -3.8669   -5.0127    0.0447 H   0  0
    0.0149    6.3563   -0.0351 H   0  0
   -2.1005    5.1638   -0.0489 H   0  0
   -3.7730    4.2259    0.1030 H   0  0
   -5.8861    2.9979    0.0418 H   0  0
   -5.9610   -3.7691   -0.0067 H   0  0
   -6.9930    0.7595    0.5968 H   0  0
   -7.1670   -1.6634   -0.1152 H   0  0
   -6.9407    0.6722   -1.4720 O   0  0
   -6.3820    1.3422   -1.9025 H   0  0
    2.6328    6.7539    0.0100 C   0  0
    1.7145    7.5634    0.0333 O   0  0
    3.9340    7.1897    0.0632 O   0  0
    3.8573    8.1641    0.0982 H   0  0
    6.0600    3.1020    0.0485 O   0  0
    6.8126    2.4865    0.0585 H   0  0
M  END

> <TOTAL ENERGY>
BIOVIA, TYPE=DOUBLE, VERSION=1                                                  
 -2177.93194458

> <BINDING ENERGY>
BIOVIA, TYPE=DOUBLE, VERSION=1                                                  
   -16.60160673

> <HOMO ENERGY>
BIOVIA, TYPE=DOUBLE, VERSION=1                                                  
    -0.14802781

> <LUMO ENERGY>
BIOVIA, TYPE=DOUBLE, VERSION=1                                                  
    -0.10821208

> <LUMO-HOMO ENERGY>
BIOVIA, TYPE=DOUBLE, VERSION=1                                                  
     0.03981573

> <OPERATION STATUS>
BIOVIA, TYPE=STATUS, VERSION=1                                                  
SUCCESS

$$$$
