Materials Studio SDF calculation
TCVAMP81A 

 67  0  0  0  0  0              1 V2000
    1.2495    0.7792   -0.0174 C   0  0
    0.0274    2.9384   -0.0306 C   0  0
    3.7334    0.7679   -0.0131 C   0  0
    2.5057    2.9099   -0.0261 C   0  0
    4.9513    2.8858   -0.0218 C   0  0
    0.0200    1.5039   -0.0233 C   0  0
    2.5010    1.4805   -0.0189 C   0  0
    1.2758    3.6349   -0.0320 C   0  0
    4.9452    1.5117   -0.0148 C   0  0
    3.7409    3.6227   -0.0276 C   0  0
   -3.6920    0.8261   -0.0262 C   0  0
   -4.8938    2.9561   -0.0392 C   0  0
   -1.2186    0.8036   -0.0218 C   0  0
   -2.4507    2.9604   -0.0350 C   0  0
   -4.9268    1.5395   -0.0320 C   0  0
   -2.4516    1.5368   -0.0277 C   0  0
   -3.7008    3.6379   -0.0406 C   0  0
   -1.1929    3.6715   -0.0364 C   0  0
   -1.1290    5.0919   -0.0436 C   0  0
    1.3011    5.0607   -0.0392 C   0  0
    3.7323    5.0464   -0.0349 C   0  0
    0.0702    5.7628   -0.0449 C   0  0
    2.5510    5.7427   -0.0405 C   0  0
    2.5494    6.8340   -0.0461 H   0  0
   -0.0057   -1.3460   -0.0088 C   0  0
    2.4753   -1.3672   -0.0043 C   0  0
   -1.2315   -0.6235   -0.0146 C   0  0
    1.2367   -0.6436   -0.0102 C   0  0
    3.7203   -0.6769   -0.0057 C   0  0
   -4.9524   -1.2924   -0.0176 C   0  0
   -2.4775   -1.3343   -0.0131 C   0  0
   -6.1679   -0.5510   -0.0235 C   0  0
   -3.7048   -0.6014   -0.0190 C   0  0
   -6.1555    0.8201   -0.0305 C   0  0
    1.2115   -3.4992    0.0044 C   0  0
    3.6764   -3.5314    0.0088 C   0  0
   -0.0242   -2.7804   -0.0015 C   0  0
    2.4542   -2.7965    0.0029 C   0  0
    4.8999   -2.8165    0.0073 C   0  0
   -3.7643   -3.4126   -0.0047 C   0  0
   -1.2575   -3.4914    0.0000 C   0  0
   -4.9449   -2.7094   -0.0103 C   0  0
   -2.5022   -2.7577   -0.0059 C   0  0
    4.9185   -1.4425    0.0003 C   0  0
   -0.0323   -5.6051    0.0130 C   0  0
    2.4484   -5.6297    0.0174 C   0  0
    1.2111   -4.9253    0.0116 C   0  0
    3.6421   -4.9548    0.0160 C   0  0
   -1.2192   -4.9127    0.0074 C   0  0
    4.6878    5.5736   -0.0360 H   0  0
    5.8996    0.9895   -0.0105 H   0  0
    5.8977    3.4294   -0.0229 H   0  0
    5.8822   -0.9376   -0.0006 H   0  0
    5.8363   -3.3771    0.0117 H   0  0
    4.5879   -5.4991    0.0204 H   0  0
    2.4272   -6.7207    0.0229 H   0  0
   -0.0346   -6.6964    0.0185 H   0  0
   -2.1487   -5.4781    0.0086 H   0  0
   -3.8089   -4.4996    0.0008 H   0  0
    0.0875    6.8540   -0.0505 H   0  0
   -2.0481    5.6740   -0.0481 H   0  0
   -3.7257    4.7255   -0.0462 H   0  0
   -5.8378    3.5039   -0.0436 H   0  0
   -5.8986   -3.2401   -0.0093 H   0  0
   -7.0898    1.3840   -0.0350 H   0  0
   -7.1122   -1.0980   -0.0223 H   0  0
   -0.5544   -5.2114    1.0564 O   0  0
M  END

> <TOTAL ENERGY>
BIOVIA, TYPE=DOUBLE, VERSION=1                                                  
 -1913.69745267

> <BINDING ENERGY>
BIOVIA, TYPE=DOUBLE, VERSION=1                                                  
   -15.66145294

> <HOMO ENERGY>
BIOVIA, TYPE=DOUBLE, VERSION=1                                                  
    -0.17422396

> <LUMO ENERGY>
BIOVIA, TYPE=DOUBLE, VERSION=1                                                  
    -0.10678994

> <LUMO-HOMO ENERGY>
BIOVIA, TYPE=DOUBLE, VERSION=1                                                  
     0.06743402

> <OPERATION STATUS>
BIOVIA, TYPE=STATUS, VERSION=1                                                  
SUCCESS

$$$$
