Materials Studio SDF calculation
TCVAMP81A 

 67  0  0  0  0  0              1 V2000
    1.3386    0.6964   -0.0205 C   0  0
    0.1222    2.8564   -0.0338 C   0  0
    3.8212    0.6833   -0.0172 C   0  0
    2.6020    2.8249   -0.0304 C   0  0
    5.0441    2.7986   -0.0271 C   0  0
    0.1106    1.4219   -0.0260 C   0  0
    2.5895    1.3948   -0.0226 C   0  0
    1.3725    3.5517   -0.0359 C   0  0
    5.0320    1.4211   -0.0196 C   0  0
    3.8314    3.5445   -0.0327 C   0  0
   -3.6026    0.7517   -0.0271 C   0  0
   -4.7996    2.8845   -0.0403 C   0  0
   -1.1294    0.7244   -0.0238 C   0  0
   -2.3564    2.8835   -0.0371 C   0  0
   -4.8354    1.4674   -0.0326 C   0  0
   -2.3605    1.4594   -0.0294 C   0  0
   -3.6057    3.5644   -0.0424 C   0  0
   -1.0964    3.5908   -0.0393 C   0  0
   -1.0319    5.0114   -0.0470 C   0  0
    1.3978    4.9781   -0.0437 C   0  0
    3.8300    4.9667   -0.0405 C   0  0
    0.1669    5.6815   -0.0491 C   0  0
    2.6464    5.6603   -0.0458 C   0  0
    2.6450    6.7513   -0.0517 H   0  0
    0.0788   -1.4265   -0.0105 C   0  0
    2.5600   -1.4500   -0.0072 C   0  0
   -1.1456   -0.7034   -0.0160 C   0  0
    1.3223   -0.7269   -0.0127 C   0  0
    3.8069   -0.7615   -0.0093 C   0  0
   -4.8680   -1.3647   -0.0172 C   0  0
   -2.3933   -1.4112   -0.0138 C   0  0
   -6.0807   -0.6204   -0.0229 C   0  0
   -3.6186   -0.6762   -0.0194 C   0  0
   -6.0653    0.7509   -0.0303 C   0  0
    1.2929   -3.5806    0.0028 C   0  0
    3.7574   -3.6163    0.0061 C   0  0
    0.0582   -2.8610   -0.0027 C   0  0
    2.5373   -2.8798    0.0006 C   0  0
    4.9821   -2.9035    0.0038 C   0  0
   -3.6848   -3.4880   -0.0042 C   0  0
   -1.1765   -3.5694   -0.0005 C   0  0
   -4.8636   -2.7819   -0.0095 C   0  0
   -2.4208   -2.8351   -0.0061 C   0  0
    5.0019   -1.5294   -0.0036 C   0  0
    0.0460   -5.6860    0.0126 C   0  0
    2.5270   -5.7133    0.0160 C   0  0
    1.2905   -5.0074    0.0105 C   0  0
    3.7214   -5.0399    0.0138 C   0  0
   -1.1396   -4.9913    0.0073 C   0  0
    4.7856    5.4882   -0.0421 H   0  0
    5.9883    0.8976   -0.0156 H   0  0
    5.9072    3.3253   -0.0296 H   0  0
    5.9686   -1.0294   -0.0051 H   0  0
    5.9181   -3.4646    0.0081 H   0  0
    4.6675   -5.5839    0.0180 H   0  0
    2.5042   -6.8042    0.0219 H   0  0
    0.0410   -6.7775    0.0185 H   0  0
   -2.0707   -5.5543    0.0092 H   0  0
   -3.7309   -4.5752    0.0017 H   0  0
    0.1856    6.7725   -0.0550 H   0  0
   -1.9507    5.5936   -0.0513 H   0  0
   -3.6282    4.6518   -0.0484 H   0  0
   -5.7442    3.4315   -0.0445 H   0  0
   -5.8194   -3.3089   -0.0079 H   0  0
   -6.9994    1.3153   -0.0346 H   0  0
   -7.0275   -1.1632   -0.0211 H   0  0
   -6.2531    0.0894    1.2058 O   0  0
M  END

> <TOTAL ENERGY>
BIOVIA, TYPE=DOUBLE, VERSION=1                                                  
 -1913.67494655

> <BINDING ENERGY>
BIOVIA, TYPE=DOUBLE, VERSION=1                                                  
   -15.63894682

> <HOMO ENERGY>
BIOVIA, TYPE=DOUBLE, VERSION=1                                                  
    -0.17714805

> <LUMO ENERGY>
BIOVIA, TYPE=DOUBLE, VERSION=1                                                  
    -0.10545088

> <LUMO-HOMO ENERGY>
BIOVIA, TYPE=DOUBLE, VERSION=1                                                  
     0.07169717

> <OPERATION STATUS>
BIOVIA, TYPE=STATUS, VERSION=1                                                  
SUCCESS

$$$$
