Materials Studio SDF calculation
TCVAMP81A 

 67  0  0  0  0  0              1 V2000
    1.0828    0.3856    0.0000 C   0  0
   -0.1313    2.5447    0.0000 C   0  0
    3.5565    0.3788    0.0000 C   0  0
    2.3443    2.5150    0.0000 C   0  0
    4.7918    2.4916    0.0000 C   0  0
   -0.1431    1.1104    0.0000 C   0  0
    2.3309    1.0943    0.0000 C   0  0
    1.1177    3.2415    0.0000 C   0  0
    4.8026    1.0904    0.0000 C   0  0
    3.5944    3.2195    0.0000 C   0  0
   -3.8560    0.4376    0.0000 C   0  0
   -5.0548    2.5681    0.0000 C   0  0
   -1.3822    0.4088    0.0000 C   0  0
   -2.6113    2.5684    0.0000 C   0  0
   -5.0892    1.1524    0.0000 C   0  0
   -2.6144    1.1450    0.0000 C   0  0
   -3.8592    3.2486    0.0000 C   0  0
   -1.3505    3.2797    0.0000 C   0  0
   -1.2849    4.6964    0.0000 C   0  0
    1.1453    4.6669    0.0000 C   0  0
    3.5818    4.6512    0.0000 C   0  0
   -0.0810    5.3688    0.0000 C   0  0
    2.4038    5.3463    0.0000 C   0  0
    2.4040    6.4379    0.0000 O   0  0
   -0.1676   -1.7417    0.0000 C   0  0
    2.3128   -1.7619    0.0000 C   0  0
   -1.3934   -1.0169    0.0000 C   0  0
    1.0729   -1.0380    0.0000 C   0  0
    3.5508   -1.0472    0.0000 C   0  0
   -5.1198   -1.6792    0.0000 C   0  0
   -2.6451   -1.7248    0.0000 C   0  0
   -6.3350   -0.9354    0.0000 C   0  0
   -3.8704   -0.9902    0.0000 C   0  0
   -6.3205    0.4350    0.0000 C   0  0
    1.0557   -3.9053    0.0000 C   0  0
    3.5671   -3.8532    0.0000 C   0  0
   -0.1778   -3.1778    0.0000 C   0  0
    2.3193   -3.1839    0.0000 C   0  0
    4.7636   -3.1640    0.0000 C   0  0
   -3.9318   -3.7988    0.0000 C   0  0
   -1.4220   -3.8860    0.0000 C   0  0
   -5.1144   -3.0941    0.0000 C   0  0
   -2.6718   -3.1445    0.0000 C   0  0
    4.7898   -1.7533    0.0000 C   0  0
   -0.1997   -5.9946    0.0000 C   0  0
    6.0178   -1.0207    0.0000 C   0  0
    1.0120   -5.3105    0.0000 C   0  0
    6.0255    0.3465    0.0000 C   0  0
   -1.3999   -5.2935    0.0000 C   0  0
    4.5386    5.1772    0.0000 H   0  0
    3.5996   -4.9410    0.0000 H   0  0
    5.7428    3.0296    0.0000 H   0  0
    1.9343   -5.8884    0.0000 H   0  0
    5.7097   -3.7091    0.0000 H   0  0
    6.9690    0.8955    0.0000 H   0  0
    6.9560   -1.5790    0.0000 H   0  0
   -0.2074   -7.0852    0.0000 H   0  0
   -2.3315   -5.8555    0.0000 H   0  0
   -3.9778   -4.8860    0.0000 H   0  0
   -0.0644    6.4603    0.0000 H   0  0
   -2.2027    5.2810    0.0000 H   0  0
   -3.8821    4.3365    0.0000 H   0  0
   -5.9991    3.1161    0.0000 H   0  0
   -6.0692   -3.6237    0.0000 H   0  0
   -7.2545    1.0001    0.0000 H   0  0
   -7.2811   -1.4802    0.0000 H   0  0
    2.4040    7.4379    0.0000 H   0  0
M  END

> <TOTAL ENERGY>
BIOVIA, TYPE=DOUBLE, VERSION=1                                                  
 -1913.74717153

> <BINDING ENERGY>
BIOVIA, TYPE=DOUBLE, VERSION=1                                                  
   -15.71117180

> <HOMO ENERGY>
BIOVIA, TYPE=DOUBLE, VERSION=1                                                  
    -0.16800435

> <LUMO ENERGY>
BIOVIA, TYPE=DOUBLE, VERSION=1                                                  
    -0.10418916

> <LUMO-HOMO ENERGY>
BIOVIA, TYPE=DOUBLE, VERSION=1                                                  
     0.06381519

> <OPERATION STATUS>
BIOVIA, TYPE=STATUS, VERSION=1                                                  
SUCCESS

$$$$
