Materials Studio SDF calculation
TCVAMP81A 

 67  0  0  0  0  0              1 V2000
    1.2106    0.5017   -0.0196 C   0  0
   -0.0035    2.6608   -0.0327 C   0  0
    3.6844    0.4950   -0.0167 C   0  0
    2.4722    2.6312   -0.0297 C   0  0
    4.9196    2.6077   -0.0267 C   0  0
   -0.0152    1.2266   -0.0249 C   0  0
    2.4588    1.2105   -0.0220 C   0  0
    1.2456    3.3576   -0.0350 C   0  0
    4.9304    1.2066   -0.0191 C   0  0
    3.7223    3.3356   -0.0321 C   0  0
   -3.7281    0.5537   -0.0256 C   0  0
   -4.9269    2.6842   -0.0385 C   0  0
   -1.2544    0.5249   -0.0225 C   0  0
   -2.4834    2.6846   -0.0357 C   0  0
   -4.9614    1.2685   -0.0309 C   0  0
   -2.4866    1.2611   -0.0280 C   0  0
   -3.7313    3.3647   -0.0408 C   0  0
   -1.2226    3.3958   -0.0381 C   0  0
   -1.1570    4.8125   -0.0457 C   0  0
    1.2732    4.7830   -0.0428 C   0  0
    3.7097    4.7673   -0.0399 C   0  0
    0.0469    5.4849   -0.0480 C   0  0
    2.5316    5.4624   -0.0450 C   0  0
    2.5318    6.5540   -0.0509 H   0  0
   -0.0398   -1.6255   -0.0095 C   0  0
    2.4407   -1.6457   -0.0065 C   0  0
   -1.2656   -0.9007   -0.0148 C   0  0
    1.2008   -0.9218   -0.0118 C   0  0
    3.6786   -0.9310   -0.0089 C   0  0
   -4.9920   -1.5630   -0.0155 C   0  0
   -2.5172   -1.6087   -0.0124 C   0  0
   -6.2072   -0.8192   -0.0210 C   0  0
   -3.7426   -0.8740   -0.0178 C   0  0
   -6.1926    0.5512   -0.0284 C   0  0
    1.1835   -3.7890    0.0037 C   0  0
    3.6950   -3.7370    0.0063 C   0  0
   -0.0499   -3.0616   -0.0017 C   0  0
    2.4472   -3.0677    0.0013 C   0  0
    4.8915   -3.0478    0.0040 C   0  0
   -3.8039   -3.6826   -0.0026 C   0  0
   -1.2941   -3.7698    0.0007 C   0  0
   -4.9865   -2.9779   -0.0078 C   0  0
   -2.5440   -3.0283   -0.0047 C   0  0
    4.9176   -1.6371   -0.0037 C   0  0
   -0.0718   -5.8784    0.0136 C   0  0
    6.1457   -0.9045   -0.0062 C   0  0
    1.1398   -5.1943    0.0113 C   0  0
    6.1534    0.4627   -0.0136 C   0  0
   -1.2721   -5.1772    0.0084 C   0  0
    4.6664    5.2933   -0.0416 H   0  0
    3.7275   -4.8247    0.0123 H   0  0
    5.8706    3.1458   -0.0286 H   0  0
    2.0622   -5.7721    0.0155 H   0  0
    5.8376   -3.5928    0.0080 H   0  0
    7.0969    1.0117   -0.0155 H   0  0
    7.0839   -1.4628   -0.0021 H   0  0
   -0.0796   -6.9689    0.0195 H   0  0
   -2.2036   -5.7393    0.0104 H   0  0
   -3.8499   -4.7698    0.0032 H   0  0
    0.0634    6.5764   -0.0539 H   0  0
   -2.0748    5.3971   -0.0500 H   0  0
   -3.7542    4.4526   -0.0468 H   0  0
   -5.8712    3.2322   -0.0426 H   0  0
   -5.9413   -3.5075   -0.0060 H   0  0
   -7.1266    1.1162   -0.0325 H   0  0
   -7.1533   -1.3640   -0.0191 H   0  0
   -6.0353   -0.2291    1.1982 O   0  0
M  END

> <TOTAL ENERGY>
BIOVIA, TYPE=DOUBLE, VERSION=1                                                  
 -1913.69544580

> <BINDING ENERGY>
BIOVIA, TYPE=DOUBLE, VERSION=1                                                  
   -15.65944607

> <HOMO ENERGY>
BIOVIA, TYPE=DOUBLE, VERSION=1                                                  
    -0.17406666

> <LUMO ENERGY>
BIOVIA, TYPE=DOUBLE, VERSION=1                                                  
    -0.10445051

> <LUMO-HOMO ENERGY>
BIOVIA, TYPE=DOUBLE, VERSION=1                                                  
     0.06961615

> <OPERATION STATUS>
BIOVIA, TYPE=STATUS, VERSION=1                                                  
SUCCESS

$$$$
