Materials Studio SDF calculation
TCVAMP81A 

 67  0  0  0  0  0              1 V2000
    1.3803    0.6870    0.0000 C   0  0
    0.1582    2.8455    0.0000 C   0  0
    3.8647    0.6760    0.0000 C   0  0
    2.6365    2.8181    0.0000 C   0  0
    5.0811    2.7944    0.0000 C   0  0
    0.1509    1.4107    0.0000 C   0  0
    2.6320    1.3880    0.0000 C   0  0
    1.4067    3.5422    0.0000 C   0  0
    5.0751    1.4202    0.0000 C   0  0
    3.8715    3.5310    0.0000 C   0  0
   -3.5614    0.7335    0.0000 C   0  0
   -4.7632    2.8637    0.0000 C   0  0
   -1.0879    0.7109    0.0000 C   0  0
   -2.3201    2.8676    0.0000 C   0  0
   -4.7960    1.4466    0.0000 C   0  0
   -2.3209    1.4436    0.0000 C   0  0
   -3.5706    3.5460    0.0000 C   0  0
   -1.0616    3.5777    0.0000 C   0  0
   -0.9989    4.9983    0.0000 C   0  0
    1.4312    4.9686    0.0000 C   0  0
    3.8621    4.9552    0.0000 C   0  0
    0.1998    5.6702    0.0000 C   0  0
    2.6809    5.6517    0.0000 C   0  0
    2.6789    6.7428    0.0000 H   0  0
    0.1248   -1.4383    0.0000 C   0  0
    2.6063   -1.4590    0.0000 C   0  0
   -1.1009   -0.7168    0.0000 C   0  0
    1.3675   -0.7364    0.0000 C   0  0
    3.8518   -0.7687    0.0000 C   0  0
   -4.8225   -1.3853    0.0000 C   0  0
   -2.3476   -1.4269    0.0000 C   0  0
   -6.0368   -0.6438    0.0000 C   0  0
   -3.5744   -0.6945    0.0000 C   0  0
   -6.0243    0.7276    0.0000 C   0  0
    1.3420   -3.5911    0.0000 C   0  0
    3.8064   -3.6232    0.0000 C   0  0
    0.1065   -2.8729    0.0000 C   0  0
    2.5851   -2.8886    0.0000 C   0  0
    5.0298   -2.9085    0.0000 C   0  0
   -3.6350   -3.5063    0.0000 C   0  0
   -1.1269   -3.5832    0.0000 C   0  0
   -4.8151   -2.8024    0.0000 C   0  0
   -2.3723   -2.8508    0.0000 C   0  0
    5.0486   -1.5344    0.0000 C   0  0
    0.0982   -5.6982    0.0000 C   0  0
    2.5791   -5.7222    0.0000 C   0  0
    1.3416   -5.0178    0.0000 C   0  0
    3.7724   -5.0469    0.0000 C   0  0
   -1.0884   -5.0051    0.0000 C   0  0
    4.8186    5.4808    0.0000 H   0  0
    6.0302    0.8990    0.0000 H   0  0
    6.0286    3.3360    0.0000 H   0  0
    6.0134   -1.0313    0.0000 H   0  0
    5.9667   -3.4682    0.0000 H   0  0
    4.7194   -5.5894    0.0000 H   0  0
    2.5580   -6.8131    0.0000 H   0  0
    0.0947   -6.7896    0.0000 H   0  0
   -2.0186   -5.5694    0.0000 H   0  0
   -3.6790   -4.5935    0.0000 H   0  0
    0.2163    6.7612    0.0000 H   0  0
   -1.9182    5.5795    0.0000 H   0  0
   -3.5950    4.6334    0.0000 H   0  0
   -5.7089    3.4087    0.0000 H   0  0
   -5.7699   -3.3314    0.0000 H   0  0
   -7.5596    1.0899    0.0000 O   0  0
   -6.9824   -1.1887    0.0000 H   0  0
   -8.5596    1.0899    0.0000 H   0  0
M  END

> <TOTAL ENERGY>
BIOVIA, TYPE=DOUBLE, VERSION=1                                                  
 -1913.73005969

> <BINDING ENERGY>
BIOVIA, TYPE=DOUBLE, VERSION=1                                                  
   -15.69405997

> <HOMO ENERGY>
BIOVIA, TYPE=DOUBLE, VERSION=1                                                  
    -0.17463087

> <LUMO ENERGY>
BIOVIA, TYPE=DOUBLE, VERSION=1                                                  
    -0.09660011

> <LUMO-HOMO ENERGY>
BIOVIA, TYPE=DOUBLE, VERSION=1                                                  
     0.07803076

> <OPERATION STATUS>
BIOVIA, TYPE=STATUS, VERSION=1                                                  
SUCCESS

$$$$
