Materials Studio SDF calculation
TCVAMP81A 

 68  0  0  0  0  0              1 V2000
    1.4382    0.6743    0.0467 C   0  0
    0.2273    2.8365    0.0349 C   0  0
    3.9234    0.6552    0.0572 C   0  0
    2.7047    2.8007    0.0466 C   0  0
    5.1487    2.7684    0.0559 C   0  0
    0.2129    1.4007    0.0377 C   0  0
    2.6939    1.3712    0.0503 C   0  0
    1.4781    3.5291    0.0397 C   0  0
    5.1368    1.3939    0.0598 C   0  0
    3.9427    3.5093    0.0498 C   0  0
   -3.5095    0.7329   -0.0006 C   0  0
   -4.6917    2.8534   -0.0111 C   0  0
   -1.0315    0.7034    0.0290 C   0  0
   -2.2534    2.8652    0.0184 C   0  0
   -4.7255    1.4565   -0.0235 C   0  0
   -2.2623    1.4381    0.0147 C   0  0
   -3.4901    3.5442    0.0134 C   0  0
   -0.9870    3.5730    0.0266 C   0  0
   -0.9213    4.9903    0.0218 C   0  0
    1.5076    4.9555    0.0362 C   0  0
    3.9387    4.9342    0.0467 C   0  0
    0.2803    5.6604    0.0274 C   0  0
    2.7609    5.6347    0.0402 C   0  0
    2.7627    6.7259    0.0377 H   0  0
    0.1754   -1.4479    0.0486 C   0  0
    2.6568   -1.4761    0.0614 C   0  0
   -1.0482   -0.7225    0.0351 C   0  0
    1.4208   -0.7499    0.0522 C   0  0
    3.9055   -0.7897    0.0626 C   0  0
   -4.7870   -1.3971   -0.0001 C   0  0
   -2.3022   -1.4287    0.0292 C   0  0
   -5.9797   -0.7064   -0.0258 C   0  0
   -3.5163   -0.7015    0.0100 C   0  0
   -6.0681    0.7717   -0.1082 C   0  0
    1.3860   -3.6035    0.0711 C   0  0
    3.8508   -3.6436    0.0800 C   0  0
    0.1554   -2.8821    0.0595 C   0  0
    2.6318   -2.9051    0.0706 C   0  0
    5.0765   -2.9328    0.0789 C   0  0
   -3.5880   -3.5243    0.0407 C   0  0
   -1.0854   -3.5900    0.0588 C   0  0
   -4.7635   -2.8320    0.0189 C   0  0
   -2.3198   -2.8623    0.0434 C   0  0
    5.0993   -1.5584    0.0702 C   0  0
    0.1358   -5.7099    0.0848 C   0  0
    2.6160   -5.7385    0.0931 C   0  0
    1.3828   -5.0317    0.0833 C   0  0
    3.8129   -5.0663    0.0916 C   0  0
   -1.0476   -5.0162    0.0729 C   0  0
    4.8971    5.4565    0.0495 H   0  0
    6.0905    0.8699    0.0650 H   0  0
    6.0985    3.3062    0.0581 H   0  0
    6.0655   -1.0580    0.0702 H   0  0
    6.0120   -3.4947    0.0856 H   0  0
    4.7581   -5.6120    0.0988 H   0  0
    2.5921   -6.8294    0.1023 H   0  0
    0.1315   -6.8010    0.0956 H   0  0
   -1.9780   -5.5795    0.0745 H   0  0
   -3.6270   -4.6113    0.0570 H   0  0
    0.2992    6.7514    0.0233 H   0  0
   -1.8390    5.5743    0.0124 H   0  0
   -3.5179    4.6316    0.0261 H   0  0
   -5.6355    3.4005   -0.0372 H   0  0
   -5.7173   -3.3623    0.0160 H   0  0
   -6.7270    1.1613    0.6881 H   0  0
   -6.9233   -1.2548   -0.0397 H   0  0
   -6.7918    1.1696   -1.3184 O   0  0
   -6.2723    0.8195   -2.0655 H   0  0
M  END

> <TOTAL ENERGY>
BIOVIA, TYPE=DOUBLE, VERSION=1                                                  
 -1914.27253778

> <BINDING ENERGY>
BIOVIA, TYPE=DOUBLE, VERSION=1                                                  
   -15.73684860

> <HOMO ENERGY>
BIOVIA, TYPE=DOUBLE, VERSION=1                                                  
    -0.15371875

> <LUMO ENERGY>
BIOVIA, TYPE=DOUBLE, VERSION=1                                                  
    -0.13662460

> <LUMO-HOMO ENERGY>
BIOVIA, TYPE=DOUBLE, VERSION=1                                                  
     0.01709415

> <OPERATION STATUS>
BIOVIA, TYPE=STATUS, VERSION=1                                                  
SUCCESS

$$$$
