Materials Studio SDF calculation
TCVAMP81A 

 68  0  0  0  0  0              1 V2000
    1.0674    0.7465    0.0000 C   0  0
   -0.1426    2.9105    0.0000 C   0  0
    3.5493    0.7278    0.0000 C   0  0
    2.3368    2.8724    0.0000 C   0  0
    4.7786    2.8391    0.0000 C   0  0
   -0.1583    1.4758    0.0000 C   0  0
    2.3201    1.4422    0.0000 C   0  0
    1.1096    3.6027    0.0000 C   0  0
    4.7624    1.4616    0.0000 C   0  0
    3.5684    3.5884    0.0000 C   0  0
   -3.8739    0.8171    0.0000 C   0  0
   -5.0644    2.9534    0.0000 C   0  0
   -1.4006    0.7821    0.0000 C   0  0
   -2.6211    2.9450    0.0000 C   0  0
   -5.1046    1.5365    0.0000 C   0  0
   -2.6295    1.5211    0.0000 C   0  0
   -3.8683    3.6296    0.0000 C   0  0
   -1.3589    3.6486    0.0000 C   0  0
   -1.2905    5.0689    0.0000 C   0  0
    1.1389    5.0289    0.0000 C   0  0
    3.5711    5.0107    0.0000 C   0  0
   -0.0899    5.7359    0.0000 C   0  0
    2.3896    5.7077    0.0000 C   0  0
   -0.1989   -1.3722    0.0000 C   0  0
    2.2834   -1.4039    0.0000 C   0  0
   -1.4212   -0.6455    0.0000 C   0  0
    1.0471   -0.6769    0.0000 C   0  0
    3.5316   -0.7174    0.0000 C   0  0
   -5.1460   -1.2951    0.0000 C   0  0
   -2.6715   -1.3495    0.0000 C   0  0
   -6.3563   -0.5470    0.0000 C   0  0
   -3.8943   -0.6106    0.0000 C   0  0
   -6.3370    0.8241    0.0000 C   0  0
    1.0084   -3.5286    0.0000 C   0  0
    3.4800   -3.5642    0.0000 C   0  0
   -0.2231   -2.8065    0.0000 C   0  0
    2.2570   -2.8347    0.0000 C   0  0
    4.7076   -2.8605    0.0000 C   0  0
   -3.9685   -3.4223    0.0000 C   0  0
   -1.4605   -3.5106    0.0000 C   0  0
   -5.1453   -2.7125    0.0000 C   0  0
   -2.7026   -2.7732    0.0000 C   0  0
    4.7247   -1.4858    0.0000 C   0  0
   -0.2413   -5.6304    0.0000 C   0  0
    2.2360   -5.6643    0.0000 C   0  0
    1.0054   -4.9544    0.0000 C   0  0
    3.4361   -4.9946    0.0000 C   0  0
   -1.4251   -4.9317    0.0000 C   0  0
    4.5282    5.5296    0.0000 H   0  0
    5.7178    0.9362    0.0000 H   0  0
    5.6918   -0.9868    0.0000 H   0  0
    5.6393   -3.4232    0.0000 H   0  0
    2.2134   -6.7571    0.0000 H   0  0
   -0.2507   -6.7215    0.0000 H   0  0
   -2.3568   -5.4938    0.0000 H   0  0
   -4.0181   -4.5093    0.0000 H   0  0
   -0.0681    6.8269    0.0000 H   0  0
   -2.2077    5.6537    0.0000 H   0  0
   -3.8880    4.7172    0.0000 H   0  0
   -6.0066    3.5043    0.0000 H   0  0
   -6.1027   -3.2369    0.0000 H   0  0
   -7.2688    1.3921    0.0000 H   0  0
   -7.3048   -1.0873    0.0000 H   0  0
    2.3911    6.7988    0.0000 H   0  0
    5.9442    3.5624    0.0000 O   0  0
    6.6922    2.9413    0.0000 H   0  0
    4.6497   -5.6359    0.0000 O   0  0
    4.4894   -6.5947    0.0000 H   0  0
M  END

> <TOTAL ENERGY>
BIOVIA, TYPE=DOUBLE, VERSION=1                                                  
 -1988.91825674

> <BINDING ENERGY>
BIOVIA, TYPE=DOUBLE, VERSION=1                                                  
   -15.88154690

> <HOMO ENERGY>
BIOVIA, TYPE=DOUBLE, VERSION=1                                                  
    -0.17215462

> <LUMO ENERGY>
BIOVIA, TYPE=DOUBLE, VERSION=1                                                  
    -0.09570025

> <LUMO-HOMO ENERGY>
BIOVIA, TYPE=DOUBLE, VERSION=1                                                  
     0.07645436

> <OPERATION STATUS>
BIOVIA, TYPE=STATUS, VERSION=1                                                  
SUCCESS

$$$$
