Materials Studio SDF calculation
TCVAMP81A 

 66  0  0  0  0  0              1 V2000
    1.2541    0.8342   -0.0118 C   0  0
    0.0222    2.9635   -0.0118 C   0  0
    3.7141    0.8363   -0.0118 C   0  0
    2.4822    2.9657   -0.0118 C   0  0
    4.9422    2.9678   -0.0118 C   0  0
    0.0235    1.5432   -0.0118 C   0  0
    2.4835    1.5454   -0.0118 C   0  0
    1.2516    3.6747   -0.0118 C   0  0
    4.9435    1.5475   -0.0118 C   0  0
    3.7116    3.6769   -0.0118 C   0  0
   -3.6459    0.8342   -0.0118 C   0  0
   -4.8778    2.9635   -0.0118 C   0  0
   -1.1859    0.8363   -0.0118 C   0  0
   -2.4178    2.9657   -0.0118 C   0  0
   -4.8765    1.5432   -0.0118 C   0  0
   -2.4165    1.5454   -0.0118 C   0  0
   -3.6484    3.6747   -0.0118 C   0  0
   -1.1884    3.6769   -0.0118 C   0  0
   -1.1778    5.1635   -0.0118 C   0  0
    1.2822    5.1657   -0.0118 C   0  0
    3.7422    5.1678   -0.0118 C   0  0
    0.0516    5.8747   -0.0118 C   0  0
    2.5116    5.8769   -0.0118 C   0  0
    2.6116    6.8737   -0.0117 H   0  0
    0.0541   -1.3658   -0.0118 C   0  0
    2.5141   -1.3637   -0.0118 C   0  0
   -1.1765   -0.6568   -0.0118 C   0  0
    1.2835   -0.6546   -0.0118 C   0  0
    3.7435   -0.6525   -0.0118 C   0  0
   -4.8459   -1.3658   -0.0118 C   0  0
   -2.3859   -1.3637   -0.0118 C   0  0
   -6.0765   -0.6568   -0.0118 C   0  0
   -3.6165   -0.6546   -0.0118 C   0  0
   -6.0765    0.7432   -0.0118 C   0  0
    1.1466   -3.7411   -0.0118 C   0  0
    3.6066   -3.7390   -0.0118 C   0  0
   -0.0840   -3.0321   -0.0118 C   0  0
    2.3760   -3.0299   -0.0118 C   0  0
    4.8360   -3.0278   -0.0118 C   0  0
   -3.7534   -3.7411   -0.0118 C   0  0
   -1.2934   -3.7390   -0.0118 C   0  0
   -4.9840   -3.0321   -0.0118 C   0  0
   -2.5240   -3.0299   -0.0118 C   0  0
    4.9690   -1.6062   -0.0119 C   0  0
   -0.1632   -6.0029    0.0750 C   0  0
    2.2968   -6.0008    0.0750 C   0  0
    1.0662   -5.2917    0.0750 C   0  0
    3.5262   -5.2896    0.0750 C   0  0
   -1.3738   -5.2896    0.0750 C   0  0
    4.4614    5.7770   -0.0179 H   0  0
    5.9435    1.5475   -0.0118 H   0  0
    5.7645    3.4674   -0.0186 H   0  0
    5.7818   -1.2001   -0.0160 H   0  0
    5.5171   -3.6179   -0.0062 H   0  0
    4.4039   -5.7924    0.0819 H   0  0
    2.2592   -6.9801    0.0858 H   0  0
   -0.1913   -6.8707    0.0829 H   0  0
   -1.9953   -5.9384    0.0804 H   0  0
   -3.7815   -4.6089   -0.0039 H   0  0
    0.0807    6.8060   -0.0215 H   0  0
   -1.8579    5.8172   -0.0192 H   0  0
   -3.6193    4.6060   -0.0215 H   0  0
   -5.7768    3.0239   -0.0135 H   0  0
   -5.7990   -3.4746   -0.0086 H   0  0
   -6.9565    1.4033   -0.0194 H   0  0
   -6.8915   -1.0993   -0.0086 H   0  0
M  END

> <TOTAL ENERGY>
BIOVIA, TYPE=DOUBLE, VERSION=1                                                  
 -1838.54029983

> <BINDING ENERGY>
BIOVIA, TYPE=DOUBLE, VERSION=1                                                  
   -15.50501022

> <HOMO ENERGY>
BIOVIA, TYPE=DOUBLE, VERSION=1                                                  
    -0.17866134

> <LUMO ENERGY>
BIOVIA, TYPE=DOUBLE, VERSION=1                                                  
    -0.09774264

> <LUMO-HOMO ENERGY>
BIOVIA, TYPE=DOUBLE, VERSION=1                                                  
     0.08091870

> <OPERATION STATUS>
BIOVIA, TYPE=STATUS, VERSION=1                                                  
SUCCESS

$$$$
