Materials Studio SDF calculation
TCVAMP81A 

 67  0  0  0  0  0              1 V2000
    1.2201    0.4411    0.0000 C   0  0
    0.0060    2.6002    0.0000 C   0  0
    3.6939    0.4343    0.0000 C   0  0
    2.4817    2.5706    0.0000 C   0  0
    4.9291    2.5471    0.0000 C   0  0
   -0.0057    1.1660    0.0000 C   0  0
    2.4683    1.1498    0.0000 C   0  0
    1.2551    3.2970    0.0000 C   0  0
    4.9399    1.1460    0.0000 C   0  0
    3.7318    3.2750    0.0000 C   0  0
   -3.7186    0.4931    0.0000 C   0  0
   -4.9174    2.6236    0.0000 C   0  0
   -1.2449    0.4643    0.0000 C   0  0
   -2.4739    2.6240    0.0000 C   0  0
   -4.9519    1.2079    0.0000 C   0  0
   -2.4771    1.2005    0.0000 C   0  0
   -3.7218    3.3042    0.0000 C   0  0
   -1.2131    3.3352    0.0000 C   0  0
   -1.1475    4.7520    0.0000 C   0  0
    1.2827    4.7224    0.0000 C   0  0
    3.7192    4.7068    0.0000 C   0  0
    0.0564    5.4244    0.0000 C   0  0
    2.5411    5.4018    0.0000 C   0  0
    2.5413    6.4934    0.0000 H   0  0
   -0.0303   -1.6861    0.0000 C   0  0
    2.4502   -1.7064    0.0000 C   0  0
   -1.2561   -0.9613    0.0000 C   0  0
    1.2103   -0.9824    0.0000 C   0  0
    3.6881   -0.9917    0.0000 C   0  0
   -4.9825   -1.6236    0.0000 C   0  0
   -2.5077   -1.6693    0.0000 C   0  0
   -6.1977   -0.8798    0.0000 C   0  0
   -3.7331   -0.9346    0.0000 C   0  0
   -6.1831    0.4906    0.0000 C   0  0
    1.1930   -3.8497    0.0000 C   0  0
    3.7045   -3.7977    0.0000 C   0  0
   -0.0404   -3.1223    0.0000 C   0  0
    2.4567   -3.1284    0.0000 C   0  0
    4.9010   -3.1085    0.0000 C   0  0
   -3.7944   -3.7433    0.0000 C   0  0
   -1.2846   -3.8305    0.0000 C   0  0
   -4.9770   -3.0386    0.0000 C   0  0
   -2.5345   -3.0890    0.0000 C   0  0
    4.9271   -1.6977    0.0000 C   0  0
   -0.0623   -5.9391    0.0000 C   0  0
    6.1552   -0.9651    0.0000 C   0  0
    1.1493   -5.2550    0.0000 C   0  0
    6.1628    0.4021    0.0000 C   0  0
   -1.2626   -5.2379    0.0000 C   0  0
    4.6759    5.2327    0.0000 H   0  0
    3.7370   -4.8855    0.0000 H   0  0
    5.8801    3.0852    0.0000 H   0  0
    2.0717   -5.8328    0.0000 H   0  0
    5.8470   -3.6535    0.0000 H   0  0
    7.1064    0.9510    0.0000 H   0  0
    7.0934   -1.5235    0.0000 H   0  0
   -0.0701   -7.0297    0.0000 H   0  0
   -2.1941   -5.8000    0.0000 H   0  0
   -3.8404   -4.8304    0.0000 H   0  0
    0.0729    6.5159    0.0000 H   0  0
   -2.0653    5.3366    0.0000 H   0  0
   -3.7448    4.3921    0.0000 H   0  0
   -5.8617    3.1717    0.0000 O   0  0
   -5.9319   -3.5682    0.0000 H   0  0
   -7.1171    1.0557    0.0000 H   0  0
   -7.1438   -1.4246    0.0000 H   0  0
   -6.6617    3.7717    0.0000 H   0  0
M  END

> <TOTAL ENERGY>
BIOVIA, TYPE=DOUBLE, VERSION=1                                                  
 -1913.74700016

> <BINDING ENERGY>
BIOVIA, TYPE=DOUBLE, VERSION=1                                                  
   -15.71100043

> <HOMO ENERGY>
BIOVIA, TYPE=DOUBLE, VERSION=1                                                  
    -0.16706934

> <LUMO ENERGY>
BIOVIA, TYPE=DOUBLE, VERSION=1                                                  
    -0.10449847

> <LUMO-HOMO ENERGY>
BIOVIA, TYPE=DOUBLE, VERSION=1                                                  
     0.06257087

> <OPERATION STATUS>
BIOVIA, TYPE=STATUS, VERSION=1                                                  
SUCCESS

$$$$
