Materials Studio SDF calculation
TCVAMP81A 

 67  0  0  0  0  0              1 V2000
    1.1669    0.7990    0.0000 C   0  0
   -0.0540    2.9574    0.0000 C   0  0
    3.6496    0.7887    0.0000 C   0  0
    2.4229    2.9300    0.0000 C   0  0
    4.8668    2.9057    0.0000 C   0  0
   -0.0617    1.5229    0.0000 C   0  0
    2.4180    1.5003    0.0000 C   0  0
    1.1940    3.6541    0.0000 C   0  0
    4.8601    1.5317    0.0000 C   0  0
    3.6578    3.6422    0.0000 C   0  0
   -3.7736    0.8476    0.0000 C   0  0
   -4.9741    2.9776    0.0000 C   0  0
   -1.3007    0.8239    0.0000 C   0  0
   -2.5316    2.9802    0.0000 C   0  0
   -5.0074    1.5611    0.0000 C   0  0
   -2.5331    1.5567    0.0000 C   0  0
   -3.7811    3.6593    0.0000 C   0  0
   -1.2732    3.6895    0.0000 C   0  0
   -1.2106    5.1096    0.0000 C   0  0
    1.2186    5.0800    0.0000 C   0  0
    3.6490    5.0661    0.0000 C   0  0
   -0.0121    5.7817    0.0000 C   0  0
    2.4681    5.7628    0.0000 C   0  0
    2.4665    6.8538    0.0000 H   0  0
   -0.0890   -1.3246    0.0000 C   0  0
    2.3926   -1.3474    0.0000 C   0  0
   -1.3142   -0.6031    0.0000 C   0  0
    1.1538   -0.6243    0.0000 C   0  0
    3.6371   -0.6559    0.0000 C   0  0
   -5.0351   -1.2699    0.0000 C   0  0
   -2.5613   -1.3123    0.0000 C   0  0
   -6.2489   -0.5280    0.0000 C   0  0
   -3.7872   -0.5797    0.0000 C   0  0
   -6.2361    0.8430    0.0000 C   0  0
    1.1266   -3.4760    0.0000 C   0  0
    3.5973   -3.5016    0.0000 C   0  0
   -0.1071   -2.7588    0.0000 C   0  0
    2.3715   -2.7775    0.0000 C   0  0
    4.8212   -2.7930    0.0000 C   0  0
   -3.8481   -3.3910    0.0000 C   0  0
   -1.3410   -3.4675    0.0000 C   0  0
   -5.0280   -2.6868    0.0000 C   0  0
   -2.5857   -2.7357    0.0000 C   0  0
    4.8335   -1.4185    0.0000 C   0  0
   -0.1143   -5.5821    0.0000 C   0  0
    2.3625   -5.6067    0.0000 C   0  0
    1.1291   -4.9014    0.0000 C   0  0
    3.5592   -4.9317    0.0000 C   0  0
   -1.3007   -4.8881    0.0000 C   0  0
    4.6054    5.5916    0.0000 H   0  0
    5.8153    1.0110    0.0000 H   0  0
    5.8143    3.4470    0.0000 H   0  0
    5.7973   -0.9142    0.0000 H   0  0
    5.7553   -3.3516    0.0000 H   0  0
    4.7750   -5.5677    0.0000 O   0  0
    2.3435   -6.6994    0.0000 H   0  0
   -0.1192   -6.6730    0.0000 H   0  0
   -2.2297   -5.4539    0.0000 H   0  0
   -3.8924   -4.4779    0.0000 H   0  0
    0.0045    6.8726    0.0000 H   0  0
   -2.1297    5.6908    0.0000 H   0  0
   -3.8054    4.7465    0.0000 H   0  0
   -5.9187    3.5241    0.0000 H   0  0
   -5.9827   -3.2156    0.0000 H   0  0
   -7.1707    1.4061    0.0000 H   0  0
   -7.1946   -1.0726    0.0000 H   0  0
    4.6193   -6.5271    0.0000 H   0  0
M  END

> <TOTAL ENERGY>
BIOVIA, TYPE=DOUBLE, VERSION=1                                                  
 -1913.73007083

> <BINDING ENERGY>
BIOVIA, TYPE=DOUBLE, VERSION=1                                                  
   -15.69407110

> <HOMO ENERGY>
BIOVIA, TYPE=DOUBLE, VERSION=1                                                  
    -0.17463076

> <LUMO ENERGY>
BIOVIA, TYPE=DOUBLE, VERSION=1                                                  
    -0.09663435

> <LUMO-HOMO ENERGY>
BIOVIA, TYPE=DOUBLE, VERSION=1                                                  
     0.07799642

> <OPERATION STATUS>
BIOVIA, TYPE=STATUS, VERSION=1                                                  
SUCCESS

$$$$
