Materials Studio SDF calculation
TCVAMP81A 

 71  0  0  0  0  0              1 V2000
    1.5129    0.7719   -0.0238 C   0  0
    0.3044    2.9383   -0.0123 C   0  0
    3.9941    0.7525   -0.0295 C   0  0
    2.7790    2.8969    0.0332 C   0  0
    5.2196    2.8621    0.0614 C   0  0
    0.2887    1.5004   -0.0239 C   0  0
    2.7669    1.4692   -0.0111 C   0  0
    1.5539    3.6274    0.0347 C   0  0
    5.2064    1.4882    0.0126 C   0  0
    4.0157    3.6034    0.0739 C   0  0
   -3.4219    0.8471   -0.1010 C   0  0
   -4.6000    2.9557   -0.3064 C   0  0
   -0.9504    0.8057   -0.0253 C   0  0
   -2.1716    2.9726   -0.1132 C   0  0
   -4.6263    1.5598   -0.2538 C   0  0
   -2.1814    1.5447   -0.0717 C   0  0
   -3.4010    3.6496   -0.2225 C   0  0
   -0.9062    3.6785   -0.0390 C   0  0
   -0.8397    5.0928    0.0161 C   0  0
    1.5861    5.0517    0.0795 C   0  0
    4.0143    5.0253    0.1289 C   0  0
    0.3634    5.7591    0.0739 C   0  0
    2.8373    5.7265    0.1329 C   0  0
    0.2514   -1.3464    0.0072 C   0  0
    2.7310   -1.3799   -0.0526 C   0  0
   -0.9703   -0.6199    0.0034 C   0  0
    1.4942   -0.6511   -0.0240 C   0  0
    3.9751   -0.6929   -0.0776 C   0  0
   -4.6710   -1.2723    0.1938 C   0  0
   -2.2205   -1.3247    0.0606 C   0  0
   -5.9580   -0.4942    0.3296 C   0  0
   -3.4455   -0.5983    0.0380 C   0  0
   -5.9196    0.8151   -0.4602 C   0  0
    1.4607   -3.5035    0.0002 C   0  0
    3.9291   -3.5367   -0.0999 C   0  0
    0.2302   -2.7836    0.0421 C   0  0
    2.7061   -2.8089   -0.0557 C   0  0
    5.1517   -2.8324   -0.1479 C   0  0
   -3.4935   -3.3846    0.3111 C   0  0
   -0.9998   -3.4883    0.1189 C   0  0
   -4.6754   -2.6598    0.3443 C   0  0
   -2.2458   -2.7480    0.1636 C   0  0
    5.1676   -1.4572   -0.1344 C   0  0
    0.2198   -5.6023    0.0879 C   0  0
    2.6891   -5.6367   -0.0363 C   0  0
    1.4596   -4.9277    0.0176 C   0  0
    3.8871   -4.9668   -0.0907 C   0  0
   -0.9656   -4.9037    0.1390 C   0  0
    4.9750    5.5477    0.1673 H   0  0
    6.1613    0.9606    0.0136 H   0  0
    6.1341   -0.9534   -0.1718 H   0  0
    6.0856   -3.3952   -0.1927 H   0  0
    2.6679   -6.7326   -0.0253 H   0  0
    0.2115   -6.6963    0.0976 H   0  0
   -1.8980   -5.4682    0.1853 H   0  0
   -3.5464   -4.4687    0.4178 H   0  0
    0.3855    6.8519    0.1205 H   0  0
   -1.7601    5.6795    0.0221 H   0  0
   -3.4262    4.7393   -0.2613 H   0  0
   -5.5414    3.5033   -0.4137 H   0  0
   -5.6280   -3.1762    0.4904 H   0  0
   -6.7679    1.4400   -0.1189 H   0  0
   -6.7999   -1.0920   -0.0550 H   0  0
   -6.0914    0.4592   -1.8498 O   0  0
   -5.6215    1.1418   -2.3726 H   0  0
   -6.2679   -0.2503    1.7157 O   0  0
   -5.4457    0.0936    2.1268 H   0  0
    2.8395    6.8197    0.1736 H   0  0
    6.1709    3.4016    0.0980 H   0  0
    5.1011   -5.6070   -0.1370 O   0  0
    4.9303   -6.5724   -0.1222 H   0  0
M  END

> <TOTAL ENERGY>
BIOVIA, TYPE=DOUBLE, VERSION=1                                                  
 -2065.27019678

> <BINDING ENERGY>
BIOVIA, TYPE=DOUBLE, VERSION=1                                                  
   -16.23339791

> <HOMO ENERGY>
BIOVIA, TYPE=DOUBLE, VERSION=1                                                  
    -0.17611992

> <LUMO ENERGY>
BIOVIA, TYPE=DOUBLE, VERSION=1                                                  
    -0.10615851

> <LUMO-HOMO ENERGY>
BIOVIA, TYPE=DOUBLE, VERSION=1                                                  
     0.06996141

> <OPERATION STATUS>
BIOVIA, TYPE=STATUS, VERSION=1                                                  
SUCCESS

$$$$
