Materials Studio SDF calculation
TCVAMP81A 

 73  0  0  0  0  0              1 V2000
    1.4463    0.3670    0.0073 C   0  0
    0.2338    2.5320    0.0154 C   0  0
    3.9310    0.3499    0.0041 C   0  0
    2.7116    2.4947    0.0321 C   0  0
    5.1552    2.4631    0.0371 C   0  0
    0.2199    1.0930    0.0088 C   0  0
    2.7013    1.0648    0.0135 C   0  0
    1.4849    3.2235    0.0354 C   0  0
    5.1437    1.0885    0.0155 C   0  0
    3.9490    3.2029    0.0452 C   0  0
   -3.4944    0.4350   -0.0574 C   0  0
   -4.6774    2.5477   -0.2002 C   0  0
   -1.0199    0.3965    0.0033 C   0  0
   -2.2456    2.5636   -0.0468 C   0  0
   -4.7017    1.1493   -0.1853 C   0  0
   -2.2531    1.1337   -0.0260 C   0  0
   -3.4784    3.2413   -0.1184 C   0  0
   -0.9778    3.2704   -0.0003 C   0  0
   -0.9126    4.6872    0.0292 C   0  0
    1.5150    4.6501    0.0560 C   0  0
    3.9455    4.6281    0.0661 C   0  0
    0.2891    5.3564    0.0591 C   0  0
    2.7687    5.3291    0.0727 C   0  0
    0.1861   -1.7557    0.0050 C   0  0
    2.6681   -1.7832   -0.0142 C   0  0
   -1.0374   -1.0315    0.0056 C   0  0
    1.4296   -1.0574   -0.0005 C   0  0
    3.9143   -1.0963   -0.0157 C   0  0
   -4.7399   -1.6970    0.1726 C   0  0
   -2.2880   -1.7397    0.0369 C   0  0
   -6.0337   -0.9335    0.3186 C   0  0
   -3.5156   -1.0151    0.0381 C   0  0
   -5.9948    0.4105   -0.4110 C   0  0
    1.4015   -3.9137   -0.0191 C   0  0
    3.8651   -3.9491   -0.0519 C   0  0
    0.1674   -3.1945    0.0070 C   0  0
    2.6453   -3.2128   -0.0298 C   0  0
    5.0888   -3.2372   -0.0560 C   0  0
   -3.5588   -3.8118    0.2108 C   0  0
   -1.0620   -3.9037    0.0392 C   0  0
   -4.7415   -3.0906    0.2674 C   0  0
   -2.3120   -3.1669    0.0903 C   0  0
    5.1093   -1.8625   -0.0365 C   0  0
    0.1571   -6.0191   -0.0180 C   0  0
    2.6370   -6.0472   -0.0580 C   0  0
    1.3992   -5.3408   -0.0318 C   0  0
    3.8296   -5.3738   -0.0681 C   0  0
   -1.0287   -5.3222    0.0187 C   0  0
    4.9044    5.1496    0.0766 H   0  0
    6.0973    0.5645    0.0099 H   0  0
    6.1048    3.0010    0.0471 H   0  0
    6.0747   -1.3606   -0.0405 H   0  0
    6.0253   -3.7972   -0.0735 H   0  0
    4.7763   -5.9167   -0.0870 H   0  0
    2.6140   -7.1381   -0.0696 H   0  0
    0.1515   -7.1101   -0.0374 H   0  0
   -1.9611   -5.8832    0.0222 H   0  0
   -3.6093   -4.8969    0.2776 H   0  0
    0.3091    6.4471    0.0835 H   0  0
   -1.8305    5.2710    0.0329 H   0  0
   -3.5057    4.3287   -0.1307 H   0  0
   -5.6196    3.0952   -0.2798 H   0  0
   -5.6924   -3.6126    0.3900 H   0  0
   -6.8397    1.0179   -0.0421 H   0  0
   -6.8584   -1.5155   -0.1172 H   0  0
   -6.1741    0.1083   -1.8129 O   0  0
   -5.7637    0.8298   -2.3183 H   0  0
   -6.3814   -0.7660    1.7065 O   0  0
   -5.5826   -0.4587    2.1702 H   0  0
    2.8106    6.4635   -0.0150 C   0  0
    1.8891    7.2688   -0.0183 O   0  0
    4.1112    6.9066   -0.0186 O   0  0
    4.0300    7.8807   -0.0217 H   0  0
M  END

> <TOTAL ENERGY>
BIOVIA, TYPE=DOUBLE, VERSION=1                                                  
 -2178.55067652

> <BINDING ENERGY>
BIOVIA, TYPE=DOUBLE, VERSION=1                                                  
   -16.72064921

> <HOMO ENERGY>
BIOVIA, TYPE=DOUBLE, VERSION=1                                                  
    -0.18281575

> <LUMO ENERGY>
BIOVIA, TYPE=DOUBLE, VERSION=1                                                  
    -0.11585980

> <LUMO-HOMO ENERGY>
BIOVIA, TYPE=DOUBLE, VERSION=1                                                  
     0.06695595

> <OPERATION STATUS>
BIOVIA, TYPE=STATUS, VERSION=1                                                  
SUCCESS

$$$$
