Materials Studio SDF calculation
TCVAMP81A 

 66  0  0  0  0  0              1 V2000
   -0.0012   -1.4250    0.0000 C   0  0
    2.4798   -1.4239    0.0000 C   0  0
   -1.2337   -3.5816    0.0000 C   0  0
    1.2353   -3.5672    0.0000 C   0  0
    0.0106   -5.6842    0.0000 C   0  0
    1.2347   -0.7114    0.0000 C   0  0
   -0.0068   -2.8596    0.0000 C   0  0
    2.4717   -2.8534    0.0000 C   0  0
   -1.1825   -5.0026    0.0000 C   0  0
    1.2478   -4.9933    0.0000 C   0  0
    2.4717    2.8534    0.0000 C   0  0
    4.9174    2.8513    0.0000 C   0  0
    1.2347    0.7114    0.0000 C   0  0
    3.7186    0.7224    0.0000 C   0  0
    3.7004    3.5772    0.0000 C   0  0
    2.4798    1.4239    0.0000 C   0  0
    4.9236    1.4772    0.0000 C   0  0
    3.7186   -0.7224    0.0000 C   0  0
    4.9236   -1.4772    0.0000 C   0  0
    3.7004   -3.5772    0.0000 C   0  0
    2.4914   -5.6865    0.0000 C   0  0
    4.9174   -2.8513    0.0000 C   0  0
    3.6789   -5.0009    0.0000 C   0  0
    4.6297   -5.5366    0.0000 H   0  0
   -1.2335    0.7136    0.0000 C   0  0
   -2.4731   -1.4356    0.0000 C   0  0
   -0.0012    1.4250    0.0000 C   0  0
   -1.2335   -0.7136    0.0000 C   0  0
   -2.4849   -2.8592    0.0000 C   0  0
    1.2478    4.9933    0.0000 C   0  0
   -0.0068    2.8596    0.0000 C   0  0
    2.4914    5.6865    0.0000 C   0  0
    1.2353    3.5672    0.0000 C   0  0
    3.6789    5.0009    0.0000 C   0  0
   -3.7069    0.7138    0.0000 C   0  0
   -4.9482   -1.4161    0.0000 C   0  0
   -2.4731    1.4356    0.0000 C   0  0
   -3.7069   -0.7138    0.0000 C   0  0
   -4.9280   -2.8329    0.0000 C   0  0
   -1.1825    5.0026    0.0000 C   0  0
   -2.4849    2.8592    0.0000 C   0  0
    0.0106    5.6842    0.0000 C   0  0
   -1.2337    3.5816    0.0000 C   0  0
   -3.7411   -3.5254    0.0000 C   0  0
   -4.9280    2.8329    0.0000 C   0  0
   -6.1703    0.6856    0.0000 C   0  0
   -4.9482    1.4161    0.0000 C   0  0
   -6.1703   -0.6856    0.0000 C   0  0
   -3.7411    3.5254    0.0000 C   0  0
    2.4800   -6.7777    0.0000 H   0  0
   -2.1069   -5.5764    0.0000 H   0  0
    0.0181   -6.7756    0.0000 H   0  0
   -3.7759   -4.6128    0.0000 H   0  0
   -5.8769   -3.3722    0.0000 H   0  0
   -7.1097   -1.2411    0.0000 H   0  0
   -7.1097    1.2411    0.0000 H   0  0
   -5.8769    3.3722    0.0000 H   0  0
   -3.7759    4.6128    0.0000 H   0  0
   -2.1069    5.5764    0.0000 H   0  0
    5.8588   -3.4034    0.0000 H   0  0
    5.8827   -0.9636    0.0000 H   0  0
    5.8827    0.9636    0.0000 H   0  0
    5.8588    3.4034    0.0000 H   0  0
    0.0181    6.7756    0.0000 H   0  0
    4.6297    5.5366    0.0000 H   0  0
    2.4800    6.7777    0.0000 H   0  0
M  END

> <TOTAL ENERGY>
BIOVIA, TYPE=DOUBLE, VERSION=1                                                  
 -1838.56390776

> <BINDING ENERGY>
BIOVIA, TYPE=DOUBLE, VERSION=1                                                  
   -15.52861815

> <HOMO ENERGY>
BIOVIA, TYPE=DOUBLE, VERSION=1                                                  
    -0.17731421

> <LUMO ENERGY>
BIOVIA, TYPE=DOUBLE, VERSION=1                                                  
    -0.09649357

> <LUMO-HOMO ENERGY>
BIOVIA, TYPE=DOUBLE, VERSION=1                                                  
     0.08082064

> <OPERATION STATUS>
BIOVIA, TYPE=STATUS, VERSION=1                                                  
SUCCESS

$$$$
