Materials Studio SDF calculation
TCVAMP81A 

 72  0  0  0  0  0              1 V2000
    1.4105    0.7281   -0.0226 C   0  0
    0.2038    2.8936   -0.0079 C   0  0
    3.8893    0.7105   -0.0350 C   0  0
    2.6804    2.8530    0.0306 C   0  0
    5.1184    2.8195    0.0451 C   0  0
    0.1862    1.4560   -0.0206 C   0  0
    2.6624    1.4249   -0.0132 C   0  0
    1.4539    3.5836    0.0365 C   0  0
    5.1005    1.4423   -0.0013 C   0  0
    3.9109    3.5690    0.0653 C   0  0
   -3.5240    0.8029   -0.0993 C   0  0
   -4.7011    2.9120   -0.3039 C   0  0
   -1.0526    0.7613   -0.0220 C   0  0
   -2.2728    2.9283   -0.1074 C   0  0
   -4.7280    1.5160   -0.2531 C   0  0
   -2.2834    1.5005   -0.0678 C   0  0
   -3.5022    3.6058   -0.2173 C   0  0
   -1.0071    3.6337   -0.0324 C   0  0
   -0.9417    5.0481    0.0247 C   0  0
    1.4841    5.0080    0.0810 C   0  0
    3.9142    4.9892    0.1194 C   0  0
    0.2605    5.7149    0.0801 C   0  0
    2.7328    5.6844    0.1288 C   0  0
    0.1486   -1.3903    0.0084 C   0  0
    2.6278   -1.4224   -0.0532 C   0  0
   -1.0731   -0.6644    0.0052 C   0  0
    1.3908   -0.6950   -0.0234 C   0  0
    3.8720   -0.7351   -0.0806 C   0  0
   -4.7737   -1.3169    0.1906 C   0  0
   -2.3230   -1.3691    0.0611 C   0  0
   -6.0609   -0.5387    0.3251 C   0  0
   -3.5480   -0.6427    0.0377 C   0  0
   -6.0209    0.7717   -0.4628 C   0  0
    1.3588   -3.5467    0.0019 C   0  0
    3.8273   -3.5791   -0.0984 C   0  0
    0.1278   -2.8274    0.0431 C   0  0
    2.6041   -2.8516   -0.0546 C   0  0
    5.0499   -2.8746   -0.1479 C   0  0
   -3.5965   -3.4294    0.3074 C   0  0
   -1.1021   -3.5325    0.1191 C   0  0
   -4.7785   -2.7048    0.3394 C   0  0
   -2.3486   -2.7926    0.1626 C   0  0
    5.0643   -1.4994   -0.1366 C   0  0
    0.1187   -5.6459    0.0902 C   0  0
    2.5881   -5.6794   -0.0323 C   0  0
    1.3583   -4.9709    0.0204 C   0  0
    3.7859   -5.0091   -0.0872 C   0  0
   -1.0671   -4.9479    0.1397 C   0  0
    4.8717    5.5116    0.1525 H   0  0
    6.0591    0.9162   -0.0065 H   0  0
    6.0317   -0.9965   -0.1754 H   0  0
    5.9839   -3.4371   -0.1921 H   0  0
    2.5675   -6.7752   -0.0203 H   0  0
    0.1110   -6.7400    0.1005 H   0  0
   -1.9993   -5.5128    0.1856 H   0  0
   -3.6495   -4.5137    0.4126 H   0  0
    0.2828    6.8076    0.1276 H   0  0
   -1.8626    5.6339    0.0338 H   0  0
   -3.5274    4.6955   -0.2553 H   0  0
   -5.6422    3.4601   -0.4122 H   0  0
   -5.7314   -3.2213    0.4831 H   0  0
   -6.8698    1.3961   -0.1222 H   0  0
   -6.9022   -1.1359   -0.0615 H   0  0
   -6.1904    0.4179   -1.8534 O   0  0
   -5.7164    1.0993   -2.3739 H   0  0
   -6.3729   -0.2965    1.7111 O   0  0
   -5.5514    0.0475    2.1235 H   0  0
    2.7331    6.7776    0.1694 H   0  0
    6.2876    3.5379    0.0773 O   0  0
    7.0322    2.9005    0.0627 H   0  0
    5.0004   -5.6491   -0.1326 O   0  0
    4.8296   -6.6145   -0.1168 H   0  0
M  END

> <TOTAL ENERGY>
BIOVIA, TYPE=DOUBLE, VERSION=1                                                  
 -2140.45837414

> <BINDING ENERGY>
BIOVIA, TYPE=DOUBLE, VERSION=1                                                  
   -16.42086515

> <HOMO ENERGY>
BIOVIA, TYPE=DOUBLE, VERSION=1                                                  
    -0.17481702

> <LUMO ENERGY>
BIOVIA, TYPE=DOUBLE, VERSION=1                                                  
    -0.10526062

> <LUMO-HOMO ENERGY>
BIOVIA, TYPE=DOUBLE, VERSION=1                                                  
     0.06955640

> <OPERATION STATUS>
BIOVIA, TYPE=STATUS, VERSION=1                                                  
SUCCESS

$$$$
