Materials Studio SDF calculation
TCVAMP81A 

 67  0  0  0  0  0              1 V2000
    1.1213    0.5437   -0.0166 C   0  0
   -0.0927    2.7028   -0.0297 C   0  0
    3.5951    0.5369   -0.0137 C   0  0
    2.3829    2.6732   -0.0267 C   0  0
    4.8303    2.6497   -0.0237 C   0  0
   -0.1045    1.2685   -0.0219 C   0  0
    2.3695    1.2524   -0.0190 C   0  0
    1.1563    3.3996   -0.0321 C   0  0
    4.8411    1.2486   -0.0161 C   0  0
    3.6330    3.3776   -0.0291 C   0  0
   -3.8174    0.5957   -0.0226 C   0  0
   -5.0162    2.7262   -0.0355 C   0  0
   -1.3437    0.5669   -0.0196 C   0  0
   -2.5727    2.7265   -0.0327 C   0  0
   -5.0507    1.3105   -0.0279 C   0  0
   -2.5759    1.3031   -0.0250 C   0  0
   -3.8206    3.4067   -0.0379 C   0  0
   -1.3119    3.4377   -0.0351 C   0  0
   -1.2463    4.8545   -0.0427 C   0  0
    1.1839    4.8249   -0.0398 C   0  0
    3.6204    4.8093   -0.0369 C   0  0
   -0.0424    5.5269   -0.0450 C   0  0
    2.4423    5.5043   -0.0420 C   0  0
    2.4425    6.5959   -0.0479 H   0  0
   -0.1290   -1.5835   -0.0065 C   0  0
    2.3514   -1.6038   -0.0035 C   0  0
   -1.3549   -0.8587   -0.0118 C   0  0
    1.1115   -0.8798   -0.0089 C   0  0
    3.5894   -0.8891   -0.0059 C   0  0
   -5.0812   -1.5210   -0.0125 C   0  0
   -2.6065   -1.5667   -0.0094 C   0  0
   -6.2964   -0.7772   -0.0180 C   0  0
   -3.8319   -0.8320   -0.0148 C   0  0
   -6.2819    0.5931   -0.0254 C   0  0
    1.0942   -3.7471    0.0067 C   0  0
    3.6057   -3.6950    0.0093 C   0  0
   -0.1392   -3.0197    0.0013 C   0  0
    2.3579   -3.0258    0.0042 C   0  0
    4.8022   -3.0058    0.0070 C   0  0
   -3.8932   -3.6406    0.0004 C   0  0
   -1.3834   -3.7278    0.0037 C   0  0
   -5.0758   -2.9360   -0.0048 C   0  0
   -2.6333   -2.9864   -0.0017 C   0  0
    4.8283   -1.5951   -0.0007 C   0  0
   -0.1611   -5.8364    0.0166 C   0  0
    6.0564   -0.8625   -0.0032 C   0  0
    1.0506   -5.1523    0.0143 C   0  0
    6.0641    0.5047   -0.0107 C   0  0
   -1.3614   -5.1353    0.0114 C   0  0
    4.5771    5.3353   -0.0386 H   0  0
    3.6382   -4.7828    0.0153 H   0  0
    5.7813    3.1877   -0.0256 H   0  0
    1.9729   -5.7302    0.0185 H   0  0
    5.7483   -3.5508    0.0110 H   0  0
    7.0076    1.0537   -0.0126 H   0  0
    6.9946   -1.4208    0.0009 H   0  0
   -0.1689   -6.9270    0.0225 H   0  0
   -2.2929   -5.6973    0.0134 H   0  0
   -3.9392   -4.7278    0.0062 H   0  0
   -0.0258    6.6183   -0.0509 H   0  0
   -2.1641    5.4391   -0.0470 H   0  0
   -3.8435    4.4946   -0.0438 H   0  0
   -5.9605    3.2742   -0.0396 H   0  0
   -6.0306   -3.4656   -0.0031 H   0  0
   -7.2159    1.1582   -0.0296 H   0  0
   -7.2425   -1.3221   -0.0161 H   0  0
   -0.1423   -2.9990    1.0011 H   0  0
M  END

> <TOTAL ENERGY>
BIOVIA, TYPE=DOUBLE, VERSION=1                                                  
 -1839.08508995

> <BINDING ENERGY>
BIOVIA, TYPE=DOUBLE, VERSION=1                                                  
   -15.55011088

> <HOMO ENERGY>
BIOVIA, TYPE=DOUBLE, VERSION=1                                                  
    -0.16868571

> <LUMO ENERGY>
BIOVIA, TYPE=DOUBLE, VERSION=1                                                  
    -0.13226396

> <LUMO-HOMO ENERGY>
BIOVIA, TYPE=DOUBLE, VERSION=1                                                  
     0.03642174

> <OPERATION STATUS>
BIOVIA, TYPE=STATUS, VERSION=1                                                  
SUCCESS

$$$$
