Materials Studio SDF calculation
TCVAMP81A 

 67  0  0  0  0  0              1 V2000
    1.0210    0.4424    0.0000 C   0  0
   -0.1931    2.6015    0.0000 C   0  0
    3.4948    0.4356    0.0000 C   0  0
    2.2826    2.5719    0.0000 C   0  0
    4.7300    2.5484    0.0000 C   0  0
   -0.2048    1.1673    0.0000 C   0  0
    2.2691    1.1511    0.0000 C   0  0
    1.0559    3.2983    0.0000 C   0  0
    4.7408    1.1473    0.0000 C   0  0
    3.5326    3.2763    0.0000 C   0  0
   -3.9178    0.4944    0.0000 C   0  0
   -5.1166    2.6249    0.0000 C   0  0
   -1.4440    0.4656    0.0000 C   0  0
   -2.6730    2.6253    0.0000 C   0  0
   -5.1510    1.2092    0.0000 C   0  0
   -2.6762    1.2018    0.0000 C   0  0
   -3.9210    3.3055    0.0000 C   0  0
   -1.4123    3.3365    0.0000 C   0  0
   -1.3467    4.7533    0.0000 C   0  0
    1.0835    4.7237    0.0000 C   0  0
    3.5201    4.7080    0.0000 C   0  0
   -0.1428    5.4257    0.0000 C   0  0
    2.3420    5.4031    0.0000 C   0  0
    2.3422    6.4947    0.0000 H   0  0
   -0.2294   -1.6849    0.0000 C   0  0
    2.2510   -1.7051    0.0000 C   0  0
   -1.4552   -0.9600    0.0000 C   0  0
    1.0112   -0.9811    0.0000 C   0  0
    3.4890   -0.9904    0.0000 C   0  0
   -5.1816   -1.6223    0.0000 C   0  0
   -2.7069   -1.6680    0.0000 C   0  0
   -6.3968   -0.8785    0.0000 C   0  0
   -3.9322   -0.9333    0.0000 C   0  0
   -6.3823    0.4919    0.0000 C   0  0
    0.9939   -3.8484    0.0000 C   0  0
    3.5053   -3.7964    0.0000 C   0  0
   -0.2396   -3.1210    0.0000 C   0  0
    2.2575   -3.1271    0.0000 C   0  0
    4.7019   -3.1072    0.0000 C   0  0
   -3.9935   -3.7420    0.0000 C   0  0
   -1.4837   -3.8292    0.0000 C   0  0
   -5.1762   -3.0373    0.0000 C   0  0
   -2.7336   -3.0877    0.0000 C   0  0
    4.7280   -1.6964    0.0000 C   0  0
   -0.2615   -5.9378    0.0000 C   0  0
    5.9561   -0.9638    0.0000 C   0  0
    0.9502   -5.2537    0.0000 C   0  0
    5.9637    0.4033    0.0000 C   0  0
   -1.4617   -5.2366    0.0000 C   0  0
    4.4768    5.2340    0.0000 H   0  0
    3.5379   -4.8842    0.0000 H   0  0
    5.6810    3.0865    0.0000 O   0  0
    1.8725   -5.8315    0.0000 H   0  0
    5.6479   -3.6522    0.0000 H   0  0
    6.9073    0.9523    0.0000 H   0  0
    6.8942   -1.5222    0.0000 H   0  0
   -0.2692   -7.0284    0.0000 H   0  0
   -2.3933   -5.7987    0.0000 H   0  0
   -4.0396   -4.8292    0.0000 H   0  0
   -0.1262    6.5171    0.0000 H   0  0
   -2.2645    5.3379    0.0000 H   0  0
   -3.9439    4.3934    0.0000 H   0  0
   -6.0608    3.1730    0.0000 H   0  0
   -6.1310   -3.5669    0.0000 H   0  0
   -7.3162    1.0570    0.0000 H   0  0
   -7.3429   -1.4233    0.0000 H   0  0
    6.4810    3.6865    0.0000 H   0  0
M  END

> <TOTAL ENERGY>
BIOVIA, TYPE=DOUBLE, VERSION=1                                                  
 -1913.74467905

> <BINDING ENERGY>
BIOVIA, TYPE=DOUBLE, VERSION=1                                                  
   -15.70867932

> <HOMO ENERGY>
BIOVIA, TYPE=DOUBLE, VERSION=1                                                  
    -0.16415329

> <LUMO ENERGY>
BIOVIA, TYPE=DOUBLE, VERSION=1                                                  
    -0.10333158

> <LUMO-HOMO ENERGY>
BIOVIA, TYPE=DOUBLE, VERSION=1                                                  
     0.06082172

> <OPERATION STATUS>
BIOVIA, TYPE=STATUS, VERSION=1                                                  
SUCCESS

$$$$
