Materials Studio SDF calculation
TCVAMP81A 

 70  0  0  0  0  0              1 V2000
    1.2633    0.7592   -0.0612 C   0  0
    0.0608    2.9256   -0.0749 C   0  0
    3.7458    0.7333   -0.0789 C   0  0
    2.5380    2.8805   -0.0907 C   0  0
    4.9801    2.8410   -0.1005 C   0  0
    0.0390    1.4918   -0.0566 C   0  0
    2.5171    1.4513   -0.0768 C   0  0
    1.3122    3.6136   -0.0929 C   0  0
    4.9600    1.4630   -0.0883 C   0  0
    3.7717    3.5935   -0.1040 C   0  0
   -3.6727    0.8518    0.0029 C   0  0
   -4.8582    3.0159   -0.0221 C   0  0
   -1.2052    0.8013   -0.0343 C   0  0
   -2.4142    2.9766   -0.0540 C   0  0
   -4.9225    1.5829    0.0141 C   0  0
   -2.4375    1.5435   -0.0284 C   0  0
   -3.6634    3.6739   -0.0548 C   0  0
   -1.1588    3.6684   -0.0767 C   0  0
   -1.0826    5.0925   -0.1035 C   0  0
    1.3468    5.0412   -0.1140 C   0  0
    3.7784    5.0145   -0.1212 C   0  0
    0.1186    5.7530   -0.1211 C   0  0
    2.5970    5.7153   -0.1275 C   0  0
   -0.0060   -1.3560   -0.0305 C   0  0
    2.4757   -1.3953   -0.0567 C   0  0
   -1.2296   -0.6244   -0.0192 C   0  0
    1.2397   -0.6652   -0.0492 C   0  0
    3.7249   -0.7122   -0.0719 C   0  0
   -4.9439   -1.2696    0.0606 C   0  0
   -2.4817   -1.3233    0.0068 C   0  0
   -6.2646   -0.5464    0.1468 C   0  0
   -3.7068   -0.5820    0.0249 C   0  0
   -6.1350    0.9272    0.0518 C   0  0
    1.1981   -3.5165   -0.0292 C   0  0
    3.6691   -3.5579   -0.0570 C   0  0
   -0.0314   -2.7915   -0.0198 C   0  0
    2.4475   -2.8255   -0.0479 C   0  0
    4.8973   -2.8572   -0.0733 C   0  0
   -3.7691   -3.3929    0.0365 C   0  0
   -1.2674   -3.4927    0.0014 C   0  0
   -4.9498   -2.6668    0.0609 C   0  0
   -2.5131   -2.7504    0.0150 C   0  0
    4.9166   -1.4821   -0.0801 C   0  0
   -0.0542   -5.6147    0.0055 C   0  0
    2.4222   -5.6557   -0.0263 C   0  0
    1.1923   -4.9426   -0.0173 C   0  0
    3.6228   -4.9890   -0.0471 C   0  0
   -1.2369   -4.9109    0.0148 C   0  0
    4.7365    5.5316   -0.1305 H   0  0
    5.9140    0.9351   -0.0865 H   0  0
    5.8845   -0.9850   -0.0924 H   0  0
    5.8280   -3.4216   -0.0802 H   0  0
    2.3967   -6.7484   -0.0166 H   0  0
   -0.0676   -6.7057    0.0170 H   0  0
   -2.1703   -5.4698    0.0342 H   0  0
   -3.8281   -4.4794    0.0353 H   0  0
    0.1452    6.8437   -0.1404 H   0  0
   -1.9968    5.6816   -0.1085 H   0  0
   -3.6722    4.7613   -0.0790 H   0  0
   -5.7959    3.5738   -0.0207 H   0  0
   -5.9086   -3.1868    0.0984 H   0  0
   -7.0621    1.5028    0.0653 H   0  0
   -6.9433   -0.9243   -0.6386 H   0  0
   -6.9904   -0.9130    1.3689 O   0  0
   -6.4541   -0.5687    2.1068 H   0  0
    2.6025    6.8063   -0.1428 H   0  0
    6.1471    3.5602   -0.1092 O   0  0
    6.8939    2.9375   -0.1068 H   0  0
    4.8356   -5.6312   -0.0578 O   0  0
    4.6749   -6.5899   -0.0502 H   0  0
M  END

> <TOTAL ENERGY>
BIOVIA, TYPE=DOUBLE, VERSION=1                                                  
 -2064.64889779

> <BINDING ENERGY>
BIOVIA, TYPE=DOUBLE, VERSION=1                                                  
   -16.11178837

> <HOMO ENERGY>
BIOVIA, TYPE=DOUBLE, VERSION=1                                                  
    -0.15078131

> <LUMO ENERGY>
BIOVIA, TYPE=DOUBLE, VERSION=1                                                  
    -0.13397431

> <LUMO-HOMO ENERGY>
BIOVIA, TYPE=DOUBLE, VERSION=1                                                  
     0.01680699

> <OPERATION STATUS>
BIOVIA, TYPE=STATUS, VERSION=1                                                  
SUCCESS

$$$$
