Materials Studio SDF calculation
TCVAMP81A 

 67  0  0  0  0  0              1 V2000
    1.1472    0.7944   -0.0115 C   0  0
   -0.0847    2.9237   -0.0115 C   0  0
    3.6072    0.7965   -0.0115 C   0  0
    2.3753    2.9259   -0.0115 C   0  0
    4.8353    2.9280   -0.0115 C   0  0
   -0.0835    1.5034   -0.0115 C   0  0
    2.3765    1.5056   -0.0115 C   0  0
    1.1447    3.6349   -0.0115 C   0  0
    4.8365    1.5077   -0.0115 C   0  0
    3.6047    3.6371   -0.0115 C   0  0
   -3.7528    0.7944   -0.0115 C   0  0
   -4.9847    2.9237   -0.0115 C   0  0
   -1.2928    0.7965   -0.0115 C   0  0
   -2.5247    2.9259   -0.0115 C   0  0
   -4.9835    1.5034   -0.0115 C   0  0
   -2.5235    1.5056   -0.0115 C   0  0
   -3.7553    3.6349   -0.0115 C   0  0
   -1.2953    3.6371   -0.0115 C   0  0
   -1.2847    5.1237   -0.0115 C   0  0
    1.1753    5.1259   -0.0115 C   0  0
    3.6353    5.1280   -0.0115 C   0  0
   -0.0553    5.8349   -0.0115 C   0  0
    2.4047    5.8371   -0.0115 C   0  0
    2.5046    6.8339   -0.0114 H   0  0
   -0.0528   -1.4056   -0.0115 C   0  0
    2.4072   -1.4035   -0.0115 C   0  0
   -1.2835   -0.6966   -0.0115 C   0  0
    1.1765   -0.6944   -0.0115 C   0  0
    3.6365   -0.6923   -0.0115 C   0  0
   -4.9528   -1.4056   -0.0115 C   0  0
   -2.4928   -1.4035   -0.0115 C   0  0
   -6.1835   -0.6966   -0.0115 C   0  0
   -3.7235   -0.6944   -0.0115 C   0  0
   -6.1835    0.7034   -0.0115 C   0  0
    1.0397   -3.7809   -0.0115 C   0  0
    3.4997   -3.7788   -0.0115 C   0  0
   -0.1910   -3.0719   -0.0115 C   0  0
    2.2690   -3.0697   -0.0115 C   0  0
    4.7290   -3.0676   -0.0115 C   0  0
   -3.8603   -3.7809   -0.0115 C   0  0
   -1.4003   -3.7788   -0.0115 C   0  0
   -5.0910   -3.0719   -0.0115 C   0  0
   -2.6310   -3.0697   -0.0115 C   0  0
    4.8621   -1.6460   -0.0116 C   0  0
   -0.2701   -6.0427    0.0753 C   0  0
    2.1899   -6.0406    0.0753 C   0  0
    0.9592   -5.3315    0.0753 C   0  0
    3.4192   -5.3294    0.0753 C   0  0
   -1.4808   -5.3294    0.0753 C   0  0
    4.3545    5.7372   -0.0176 H   0  0
    5.8365    1.5077   -0.0115 H   0  0
    6.0575    3.4276   -0.0183 O   0  0
    5.6749   -1.2399   -0.0157 H   0  0
    5.4101   -3.6577   -0.0060 H   0  0
    4.2969   -5.8322    0.0822 H   0  0
    2.1522   -7.0200    0.0861 H   0  0
   -0.2982   -6.9105    0.0832 H   0  0
   -2.1022   -5.9782    0.0807 H   0  0
   -3.8884   -4.6487   -0.0037 H   0  0
   -0.0262    6.7662   -0.0212 H   0  0
   -1.9648    5.7774   -0.0189 H   0  0
   -3.7262    4.5662   -0.0212 H   0  0
   -5.8837    2.9841   -0.0132 H   0  0
   -5.9059   -3.5144   -0.0083 H   0  0
   -7.0634    1.3634   -0.0191 H   0  0
   -6.9984   -1.1391   -0.0083 H   0  0
    6.6575    2.6276   -0.0183 H   0  0
M  END

> <TOTAL ENERGY>
BIOVIA, TYPE=DOUBLE, VERSION=1                                                  
 -1913.72845904

> <BINDING ENERGY>
BIOVIA, TYPE=DOUBLE, VERSION=1                                                  
   -15.69245931

> <HOMO ENERGY>
BIOVIA, TYPE=DOUBLE, VERSION=1                                                  
    -0.17439762

> <LUMO ENERGY>
BIOVIA, TYPE=DOUBLE, VERSION=1                                                  
    -0.09727581

> <LUMO-HOMO ENERGY>
BIOVIA, TYPE=DOUBLE, VERSION=1                                                  
     0.07712180

> <OPERATION STATUS>
BIOVIA, TYPE=STATUS, VERSION=1                                                  
SUCCESS

$$$$
