Materials Studio SDF calculation
TCVAMP81A 

 67  0  0  0  0  0              1 V2000
    1.1213    0.5228   -0.0166 C   0  0
   -0.0927    2.6819   -0.0297 C   0  0
    3.5951    0.5160   -0.0137 C   0  0
    2.3829    2.6523   -0.0267 C   0  0
    4.8303    2.6288   -0.0237 C   0  0
   -0.1045    1.2477   -0.0219 C   0  0
    2.3695    1.2315   -0.0190 C   0  0
    1.1563    3.3787   -0.0321 C   0  0
    4.8411    1.2277   -0.0161 C   0  0
    3.6330    3.3567   -0.0291 C   0  0
   -3.8174    0.5748   -0.0226 C   0  0
   -5.0162    2.7053   -0.0355 C   0  0
   -1.3437    0.5460   -0.0196 C   0  0
   -2.5727    2.7056   -0.0327 C   0  0
   -5.0507    1.2896   -0.0279 C   0  0
   -2.5759    1.2822   -0.0250 C   0  0
   -3.8206    3.3858   -0.0379 C   0  0
   -1.3119    3.4169   -0.0351 C   0  0
   -1.2463    4.8336   -0.0427 C   0  0
    1.1839    4.8040   -0.0398 C   0  0
    3.6204    4.7884   -0.0369 C   0  0
   -0.0424    5.5060   -0.0450 C   0  0
    2.4423    5.4834   -0.0420 C   0  0
    2.4425    6.5750   -0.0479 H   0  0
   -0.1290   -1.6044   -0.0065 C   0  0
    2.3514   -1.6247   -0.0035 C   0  0
   -1.3549   -0.8796   -0.0118 C   0  0
    1.1115   -0.9007   -0.0089 C   0  0
    3.5894   -0.9099   -0.0059 C   0  0
   -5.0812   -1.5419   -0.0125 C   0  0
   -2.6065   -1.5876   -0.0094 C   0  0
   -6.2964   -0.7981   -0.0180 C   0  0
   -3.8319   -0.8529   -0.0148 C   0  0
   -6.2819    0.5722   -0.0254 C   0  0
    1.0942   -3.7680    0.0067 C   0  0
    3.6057   -3.7159    0.0093 C   0  0
   -0.1392   -3.0405    0.0013 C   0  0
    2.3579   -3.0467    0.0042 C   0  0
    4.8022   -3.0267    0.0070 C   0  0
   -3.8932   -3.6615    0.0004 C   0  0
   -1.3834   -3.7487    0.0037 C   0  0
   -5.0758   -2.9569   -0.0048 C   0  0
   -2.6333   -3.0073   -0.0017 C   0  0
    4.8283   -1.6160   -0.0007 C   0  0
   -0.1611   -5.8573    0.0166 C   0  0
    6.0564   -0.8834   -0.0032 C   0  0
    1.0506   -5.1732    0.0143 C   0  0
    6.0641    0.4838   -0.0107 C   0  0
   -1.3614   -5.1562    0.0114 C   0  0
    4.5771    5.3144   -0.0386 H   0  0
    3.6382   -4.8037    0.0153 H   0  0
    5.7813    3.1669   -0.0256 H   0  0
    1.9729   -5.7510    0.0185 H   0  0
    5.7483   -3.5717    0.0110 H   0  0
    7.0076    1.0328   -0.0126 H   0  0
    6.9946   -1.4417    0.0009 H   0  0
   -0.1689   -6.9479    0.0225 H   0  0
   -2.2929   -5.7182    0.0134 H   0  0
   -3.9392   -4.7487    0.0062 H   0  0
   -0.0258    6.5974   -0.0509 H   0  0
   -2.1641    5.4182   -0.0470 H   0  0
   -3.8435    4.4737   -0.0438 H   0  0
   -5.9605    3.2533   -0.0396 H   0  0
   -6.0306   -3.4865   -0.0031 H   0  0
   -7.2159    1.1373   -0.0296 H   0  0
   -7.2425   -1.3430   -0.0161 H   0  0
   -0.1423   -1.6198    1.0011 H   0  0
M  END

> <TOTAL ENERGY>
BIOVIA, TYPE=DOUBLE, VERSION=1                                                  
 -1839.09254806

> <BINDING ENERGY>
BIOVIA, TYPE=DOUBLE, VERSION=1                                                  
   -15.55756900

> <HOMO ENERGY>
BIOVIA, TYPE=DOUBLE, VERSION=1                                                  
    -0.16990020

> <LUMO ENERGY>
BIOVIA, TYPE=DOUBLE, VERSION=1                                                  
    -0.13415341

> <LUMO-HOMO ENERGY>
BIOVIA, TYPE=DOUBLE, VERSION=1                                                  
     0.03574678

> <OPERATION STATUS>
BIOVIA, TYPE=STATUS, VERSION=1                                                  
SUCCESS

$$$$
